/*--------------------------------*- C++ -*----------------------------------*\
| =========                 |                                                 |
| \\      /  F ield         | OpenFOAM: The Open Source CFD Toolbox           |
|  \\    /   O peration     | Version:  1.5                                   |
|   \\  /    A nd           | Web:      http://www.OpenFOAM.org               |
|    \\/     M anipulation  |                                                 |
\*---------------------------------------------------------------------------*/
FoamFile
{
    version     2.0;
    format      ascii;
    class       dictionary;
    object      blockMeshDict;
}
// * * * * * * * * * * * * * * * * * * * * * * * * * * * * * * * * * * * * * //

convertToMeters 1;

vertices
(
	(0     0    0  ) //0
	(20000  0    0  ) //1
	(20000  20000 0  ) //2
	(0     20000 0  ) //3
	(0     0    2500) //4
	(20000  0    2500) //5
	(20000  20000 2500) //6
	(0     20000 2500) //7
);

blocks
(
	wedge (0 1 2 3 4 5 6 7) (1 1 2) simpleGrading (1 1 1)
);

edges
(
);

patches
(
	patch left
	(
		(0 4 7 3)
	)
	patch right
	(
		(2 6 5 1)
	)
	patch up
	(
		(3 7 6 2)
	)
	patch down
	(
		(1 5 4 0)
	)
	patch front
	(
		(0 3 2 1)
	)
	patch back
	(
		(4 5 6 7)
	)
);

mergePatchPairs 
(
);
// ************************************************************************* //
