/*--------------------------------*- C++ -*----------------------------------*\
| =========                 |                                                 |
| \\      /  F ield         | OpenFOAM: The Open Source CFD Toolbox           |
|  \\    /   O peration     | Version:  2.1.0                                 |
|   \\  /    A nd           | Web:      www.OpenFOAM.org                      |
|    \\/     M anipulation  |                                                 |
\*---------------------------------------------------------------------------*/
FoamFile
{
    version     2.0;
    format      ascii;
    class       volTensorField;
    object      K;
}
// * * * * * * * * * * * * * * * * * * * * * * * * * * * * * * * * * * * * * //

dimensions      [0 2 0 0 0 0 0];

internalField   nonuniform List<tensor> 
75000
(
 (0.2 0 0 0 0.2 0 0 0 0.2)
(0.2 0 0 0 0.2 0 0 0 0.2)
(0.2 0 0 0 0.2 0 0 0 0.2)
(0.2 0 0 0 0.2 0 0 0 0.2)
(0.2 0 0 0 0.2 0 0 0 0.2)
(0.2 0 0 0 0.2 0 0 0 0.2)
(0.2 0 0 0 0.2 0 0 0 0.2)
(0.2 0 0 0 0.2 0 0 0 0.2)
(0.2 0 0 0 0.2 0 0 0 0.2)
(0.2 0 0 0 0.2 0 0 0 0.2)
(0.2 0 0 0 0.2 0 0 0 0.2)
(0.2 0 0 0 0.2 0 0 0 0.2)
(0.2 0 0 0 0.2 0 0 0 0.2)
(0.2 0 0 0 0.2 0 0 0 0.2)
(0.2 0 0 0 0.2 0 0 0 0.2)
(0.2 0 0 0 0.2 0 0 0 0.2)
(0.2 0 0 0 0.2 0 0 0 0.2)
(0.2 0 0 0 0.2 0 0 0 0.2)
(0.2 0 0 0 0.2 0 0 0 0.2)
(0.2 0 0 0 0.2 0 0 0 0.2)
(0.2 0 0 0 0.2 0 0 0 0.2)
(0.2 0 0 0 0.2 0 0 0 0.2)
(0.2 0 0 0 0.2 0 0 0 0.2)
(0.2 0 0 0 0.2 0 0 0 0.2)
(0.2 0 0 0 0.2 0 0 0 0.2)
(0.2 0 0 0 0.2 0 0 0 0.2)
(0.2 0 0 0 0.2 0 0 0 0.2)
(0.2 0 0 0 0.2 0 0 0 0.2)
(0.2 0 0 0 0.2 0 0 0 0.2)
(0.2 0 0 0 0.2 0 0 0 0.2)
(0.2 0 0 0 0.2 0 0 0 0.2)
(0.2 0 0 0 0.2 0 0 0 0.2)
(0.2 0 0 0 0.2 0 0 0 0.2)
(0.2 0 0 0 0.2 0 0 0 0.2)
(0.2 0 0 0 0.2 0 0 0 0.2)
(0.2 0 0 0 0.2 0 0 0 0.2)
(0.2 0 0 0 0.2 0 0 0 0.2)
(0.2 0 0 0 0.2 0 0 0 0.2)
(0.2 0 0 0 0.2 0 0 0 0.2)
(0.2 0 0 0 0.2 0 0 0 0.2)
(0.2 0 0 0 0.2 0 0 0 0.2)
(0.2 0 0 0 0.2 0 0 0 0.2)
(0.2 0 0 0 0.2 0 0 0 0.2)
(0.2 0 0 0 0.2 0 0 0 0.2)
(0.2 0 0 0 0.2 0 0 0 0.2)
(0.2 0 0 0 0.2 0 0 0 0.2)
(0.2 0 0 0 0.2 0 0 0 0.2)
(0.2 0 0 0 0.2 0 0 0 0.2)
(0.2 0 0 0 0.2 0 0 0 0.2)
(0.2 0 0 0 0.2 0 0 0 0.2)
(0.2 0 0 0 0.2 0 0 0 0.2)
(0.2 0 0 0 0.2 0 0 0 0.2)
(0.2 0 0 0 0.2 0 0 0 0.2)
(0.2 0 0 0 0.2 0 0 0 0.2)
(0.2 0 0 0 0.2 0 0 0 0.2)
(0.2 0 0 0 0.2 0 0 0 0.2)
(0.2 0 0 0 0.2 0 0 0 0.2)
(0.2 0 0 0 0.2 0 0 0 0.2)
(0.2 0 0 0 0.2 0 0 0 0.2)
(0.2 0 0 0 0.2 0 0 0 0.2)
(0.2 0 0 0 0.2 0 0 0 0.2)
(0.2 0 0 0 0.2 0 0 0 0.2)
(0.2 0 0 0 0.2 0 0 0 0.2)
(0.2 0 0 0 0.2 0 0 0 0.2)
(0.2 0 0 0 0.2 0 0 0 0.2)
(0.2 0 0 0 0.2 0 0 0 0.2)
(0.2 0 0 0 0.2 0 0 0 0.2)
(0.2 0 0 0 0.2 0 0 0 0.2)
(0.2 0 0 0 0.2 0 0 0 0.2)
(0.2 0 0 0 0.2 0 0 0 0.2)
(0.2 0 0 0 0.2 0 0 0 0.2)
(0.2 0 0 0 0.2 0 0 0 0.2)
(0.2 0 0 0 0.2 0 0 0 0.2)
(0.2 0 0 0 0.2 0 0 0 0.2)
(0.2 0 0 0 0.2 0 0 0 0.2)
(0.2 0 0 0 0.2 0 0 0 0.2)
(0.2 0 0 0 0.2 0 0 0 0.2)
(0.2 0 0 0 0.2 0 0 0 0.2)
(0.2 0 0 0 0.2 0 0 0 0.2)
(0.2 0 0 0 0.2 0 0 0 0.2)
(0.2 0 0 0 0.2 0 0 0 0.2)
(0.2 0 0 0 0.2 0 0 0 0.2)
(0.2 0 0 0 0.2 0 0 0 0.2)
(0.2 0 0 0 0.2 0 0 0 0.2)
(0.2 0 0 0 0.2 0 0 0 0.2)
(0.2 0 0 0 0.2 0 0 0 0.2)
(0.2 0 0 0 0.2 0 0 0 0.2)
(0.2 0 0 0 0.2 0 0 0 0.2)
(0.2 0 0 0 0.2 0 0 0 0.2)
(0.2 0 0 0 0.2 0 0 0 0.2)
(0.2 0 0 0 0.2 0 0 0 0.2)
(0.2 0 0 0 0.2 0 0 0 0.2)
(0.2 0 0 0 0.2 0 0 0 0.2)
(0.2 0 0 0 0.2 0 0 0 0.2)
(0.2 0 0 0 0.2 0 0 0 0.2)
(0.2 0 0 0 0.2 0 0 0 0.2)
(0.2 0 0 0 0.2 0 0 0 0.2)
(0.2 0 0 0 0.2 0 0 0 0.2)
(0.2 0 0 0 0.2 0 0 0 0.2)
(0.2 0 0 0 0.2 0 0 0 0.2)
(0.2 0 0 0 0.2 0 0 0 0.2)
(0.2 0 0 0 0.2 0 0 0 0.2)
(0.2 0 0 0 0.2 0 0 0 0.2)
(0.2 0 0 0 0.2 0 0 0 0.2)
(0.2 0 0 0 0.2 0 0 0 0.2)
(0.2 0 0 0 0.2 0 0 0 0.2)
(0.2 0 0 0 0.2 0 0 0 0.2)
(0.2 0 0 0 0.2 0 0 0 0.2)
(0.2 0 0 0 0.2 0 0 0 0.2)
(0.2 0 0 0 0.2 0 0 0 0.2)
(0.2 0 0 0 0.2 0 0 0 0.2)
(0.2 0 0 0 0.2 0 0 0 0.2)
(0.2 0 0 0 0.2 0 0 0 0.2)
(0.2 0 0 0 0.2 0 0 0 0.2)
(0.2 0 0 0 0.2 0 0 0 0.2)
(0.2 0 0 0 0.2 0 0 0 0.2)
(0.2 0 0 0 0.2 0 0 0 0.2)
(0.2 0 0 0 0.2 0 0 0 0.2)
(0.2 0 0 0 0.2 0 0 0 0.2)
(0.2 0 0 0 0.2 0 0 0 0.2)
(0.2 0 0 0 0.2 0 0 0 0.2)
(0.2 0 0 0 0.2 0 0 0 0.2)
(0.2 0 0 0 0.2 0 0 0 0.2)
(0.2 0 0 0 0.2 0 0 0 0.2)
(0.2 0 0 0 0.2 0 0 0 0.2)
(0.2 0 0 0 0.2 0 0 0 0.2)
(0.2 0 0 0 0.2 0 0 0 0.2)
(0.2 0 0 0 0.2 0 0 0 0.2)
(0.2 0 0 0 0.2 0 0 0 0.2)
(0.2 0 0 0 0.2 0 0 0 0.2)
(0.2 0 0 0 0.2 0 0 0 0.2)
(0.2 0 0 0 0.2 0 0 0 0.2)
(0.2 0 0 0 0.2 0 0 0 0.2)
(0.2 0 0 0 0.2 0 0 0 0.2)
(0.2 0 0 0 0.2 0 0 0 0.2)
(0.2 0 0 0 0.2 0 0 0 0.2)
(0.2 0 0 0 0.2 0 0 0 0.2)
(0.2 0 0 0 0.2 0 0 0 0.2)
(0.2 0 0 0 0.2 0 0 0 0.2)
(0.2 0 0 0 0.2 0 0 0 0.2)
(0.2 0 0 0 0.2 0 0 0 0.2)
(0.2 0 0 0 0.2 0 0 0 0.2)
(0.2 0 0 0 0.2 0 0 0 0.2)
(0.2 0 0 0 0.2 0 0 0 0.2)
(0.2 0 0 0 0.2 0 0 0 0.2)
(0.2 0 0 0 0.2 0 0 0 0.2)
(0.2 0 0 0 0.2 0 0 0 0.2)
(0.2 0 0 0 0.2 0 0 0 0.2)
(0.2 0 0 0 0.2 0 0 0 0.2)
(0.2 0 0 0 0.2 0 0 0 0.2)
(0.2 0 0 0 0.2 0 0 0 0.2)
(0.2 0 0 0 0.2 0 0 0 0.2)
(0.2 0 0 0 0.2 0 0 0 0.2)
(0.2 0 0 0 0.2 0 0 0 0.2)
(0.2 0 0 0 0.2 0 0 0 0.2)
(0.2 0 0 0 0.2 0 0 0 0.2)
(0.2 0 0 0 0.2 0 0 0 0.2)
(0.2 0 0 0 0.2 0 0 0 0.2)
(0.2 0 0 0 0.2 0 0 0 0.2)
(0.2 0 0 0 0.2 0 0 0 0.2)
(0.2 0 0 0 0.2 0 0 0 0.2)
(0.2 0 0 0 0.2 0 0 0 0.2)
(0.2 0 0 0 0.2 0 0 0 0.2)
(0.2 0 0 0 0.2 0 0 0 0.2)
(0.2 0 0 0 0.2 0 0 0 0.2)
(0.2 0 0 0 0.2 0 0 0 0.2)
(0.2 0 0 0 0.2 0 0 0 0.2)
(0.2 0 0 0 0.2 0 0 0 0.2)
(0.2 0 0 0 0.2 0 0 0 0.2)
(0.2 0 0 0 0.2 0 0 0 0.2)
(0.2 0 0 0 0.2 0 0 0 0.2)
(0.2 0 0 0 0.2 0 0 0 0.2)
(0.2 0 0 0 0.2 0 0 0 0.2)
(0.2 0 0 0 0.2 0 0 0 0.2)
(0.2 0 0 0 0.2 0 0 0 0.2)
(0.2 0 0 0 0.2 0 0 0 0.2)
(0.2 0 0 0 0.2 0 0 0 0.2)
(0.2 0 0 0 0.2 0 0 0 0.2)
(0.2 0 0 0 0.2 0 0 0 0.2)
(0.2 0 0 0 0.2 0 0 0 0.2)
(0.2 0 0 0 0.2 0 0 0 0.2)
(0.2 0 0 0 0.2 0 0 0 0.2)
(0.2 0 0 0 0.2 0 0 0 0.2)
(0.2 0 0 0 0.2 0 0 0 0.2)
(0.2 0 0 0 0.2 0 0 0 0.2)
(0.2 0 0 0 0.2 0 0 0 0.2)
(0.2 0 0 0 0.2 0 0 0 0.2)
(0.2 0 0 0 0.2 0 0 0 0.2)
(0.2 0 0 0 0.2 0 0 0 0.2)
(0.2 0 0 0 0.2 0 0 0 0.2)
(0.2 0 0 0 0.2 0 0 0 0.2)
(0.2 0 0 0 0.2 0 0 0 0.2)
(0.2 0 0 0 0.2 0 0 0 0.2)
(0.2 0 0 0 0.2 0 0 0 0.2)
(0.2 0 0 0 0.2 0 0 0 0.2)
(0.2 0 0 0 0.2 0 0 0 0.2)
(0.2 0 0 0 0.2 0 0 0 0.2)
(0.2 0 0 0 0.2 0 0 0 0.2)
(0.2 0 0 0 0.2 0 0 0 0.2)
(0.2 0 0 0 0.2 0 0 0 0.2)
(0.2 0 0 0 0.2 0 0 0 0.2)
(0.2 0 0 0 0.2 0 0 0 0.2)
(0.2 0 0 0 0.2 0 0 0 0.2)
(0.2 0 0 0 0.2 0 0 0 0.2)
(0.2 0 0 0 0.2 0 0 0 0.2)
(0.2 0 0 0 0.2 0 0 0 0.2)
(0.2 0 0 0 0.2 0 0 0 0.2)
(0.2 0 0 0 0.2 0 0 0 0.2)
(0.2 0 0 0 0.2 0 0 0 0.2)
(0.2 0 0 0 0.2 0 0 0 0.2)
(0.2 0 0 0 0.2 0 0 0 0.2)
(0.2 0 0 0 0.2 0 0 0 0.2)
(0.2 0 0 0 0.2 0 0 0 0.2)
(0.2 0 0 0 0.2 0 0 0 0.2)
(0.2 0 0 0 0.2 0 0 0 0.2)
(0.2 0 0 0 0.2 0 0 0 0.2)
(0.2 0 0 0 0.2 0 0 0 0.2)
(0.2 0 0 0 0.2 0 0 0 0.2)
(0.2 0 0 0 0.2 0 0 0 0.2)
(0.2 0 0 0 0.2 0 0 0 0.2)
(0.2 0 0 0 0.2 0 0 0 0.2)
(0.2 0 0 0 0.2 0 0 0 0.2)
(0.2 0 0 0 0.2 0 0 0 0.2)
(0.2 0 0 0 0.2 0 0 0 0.2)
(0.2 0 0 0 0.2 0 0 0 0.2)
(0.2 0 0 0 0.2 0 0 0 0.2)
(0.2 0 0 0 0.2 0 0 0 0.2)
(0.2 0 0 0 0.2 0 0 0 0.2)
(0.2 0 0 0 0.2 0 0 0 0.2)
(0.2 0 0 0 0.2 0 0 0 0.2)
(0.2 0 0 0 0.2 0 0 0 0.2)
(0.2 0 0 0 0.2 0 0 0 0.2)
(0.2 0 0 0 0.2 0 0 0 0.2)
(0.2 0 0 0 0.2 0 0 0 0.2)
(0.2 0 0 0 0.2 0 0 0 0.2)
(0.2 0 0 0 0.2 0 0 0 0.2)
(0.2 0 0 0 0.2 0 0 0 0.2)
(0.2 0 0 0 0.2 0 0 0 0.2)
(0.2 0 0 0 0.2 0 0 0 0.2)
(0.2 0 0 0 0.2 0 0 0 0.2)
(0.2 0 0 0 0.2 0 0 0 0.2)
(0.2 0 0 0 0.2 0 0 0 0.2)
(0.2 0 0 0 0.2 0 0 0 0.2)
(0.2 0 0 0 0.2 0 0 0 0.2)
(0.2 0 0 0 0.2 0 0 0 0.2)
(0.2 0 0 0 0.2 0 0 0 0.2)
(0.2 0 0 0 0.2 0 0 0 0.2)
(0.2 0 0 0 0.2 0 0 0 0.2)
(0.2 0 0 0 0.2 0 0 0 0.2)
(0.2 0 0 0 0.2 0 0 0 0.2)
(0.2 0 0 0 0.2 0 0 0 0.2)
(0.2 0 0 0 0.2 0 0 0 0.2)
(0.2 0 0 0 0.2 0 0 0 0.2)
(0.2 0 0 0 0.2 0 0 0 0.2)
(0.2 0 0 0 0.2 0 0 0 0.2)
(0.2 0 0 0 0.2 0 0 0 0.2)
(0.2 0 0 0 0.2 0 0 0 0.2)
(0.2 0 0 0 0.2 0 0 0 0.2)
(0.2 0 0 0 0.2 0 0 0 0.2)
(0.2 0 0 0 0.2 0 0 0 0.2)
(0.2 0 0 0 0.2 0 0 0 0.2)
(0.2 0 0 0 0.2 0 0 0 0.2)
(0.2 0 0 0 0.2 0 0 0 0.2)
(0.2 0 0 0 0.2 0 0 0 0.2)
(0.2 0 0 0 0.2 0 0 0 0.2)
(0.2 0 0 0 0.2 0 0 0 0.2)
(0.2 0 0 0 0.2 0 0 0 0.2)
(0.2 0 0 0 0.2 0 0 0 0.2)
(0.2 0 0 0 0.2 0 0 0 0.2)
(0.2 0 0 0 0.2 0 0 0 0.2)
(0.2 0 0 0 0.2 0 0 0 0.2)
(0.2 0 0 0 0.2 0 0 0 0.2)
(0.2 0 0 0 0.2 0 0 0 0.2)
(0.2 0 0 0 0.2 0 0 0 0.2)
(0.2 0 0 0 0.2 0 0 0 0.2)
(0.2 0 0 0 0.2 0 0 0 0.2)
(0.2 0 0 0 0.2 0 0 0 0.2)
(0.2 0 0 0 0.2 0 0 0 0.2)
(0.2 0 0 0 0.2 0 0 0 0.2)
(0.2 0 0 0 0.2 0 0 0 0.2)
(0.2 0 0 0 0.2 0 0 0 0.2)
(0.2 0 0 0 0.2 0 0 0 0.2)
(0.2 0 0 0 0.2 0 0 0 0.2)
(0.2 0 0 0 0.2 0 0 0 0.2)
(0.2 0 0 0 0.2 0 0 0 0.2)
(0.2 0 0 0 0.2 0 0 0 0.2)
(0.2 0 0 0 0.2 0 0 0 0.2)
(0.2 0 0 0 0.2 0 0 0 0.2)
(0.2 0 0 0 0.2 0 0 0 0.2)
(0.2 0 0 0 0.2 0 0 0 0.2)
(0.2 0 0 0 0.2 0 0 0 0.2)
(0.2 0 0 0 0.2 0 0 0 0.2)
(0.2 0 0 0 0.2 0 0 0 0.2)
(0.2 0 0 0 0.2 0 0 0 0.2)
(0.2 0 0 0 0.2 0 0 0 0.2)
(0.2 0 0 0 0.2 0 0 0 0.2)
(0.2 0 0 0 0.2 0 0 0 0.2)
(0.2 0 0 0 0.2 0 0 0 0.2)
(0.2 0 0 0 0.2 0 0 0 0.2)
(0.2 0 0 0 0.2 0 0 0 0.2)
(0.2 0 0 0 0.2 0 0 0 0.2)
(0.2 0 0 0 0.2 0 0 0 0.2)
(0.2 0 0 0 0.2 0 0 0 0.2)
(0.2 0 0 0 0.2 0 0 0 0.2)
(0.2 0 0 0 0.2 0 0 0 0.2)
(0.2 0 0 0 0.2 0 0 0 0.2)
(0.2 0 0 0 0.2 0 0 0 0.2)
(0.2 0 0 0 0.2 0 0 0 0.2)
(0.2 0 0 0 0.2 0 0 0 0.2)
(0.2 0 0 0 0.2 0 0 0 0.2)
(0.2 0 0 0 0.2 0 0 0 0.2)
(0.2 0 0 0 0.2 0 0 0 0.2)
(0.2 0 0 0 0.2 0 0 0 0.2)
(0.2 0 0 0 0.2 0 0 0 0.2)
(0.2 0 0 0 0.2 0 0 0 0.2)
(0.2 0 0 0 0.2 0 0 0 0.2)
(0.2 0 0 0 0.2 0 0 0 0.2)
(0.2 0 0 0 0.2 0 0 0 0.2)
(0.2 0 0 0 0.2 0 0 0 0.2)
(0.2 0 0 0 0.2 0 0 0 0.2)
(0.2 0 0 0 0.2 0 0 0 0.2)
(0.2 0 0 0 0.2 0 0 0 0.2)
(0.2 0 0 0 0.2 0 0 0 0.2)
(0.2 0 0 0 0.2 0 0 0 0.2)
(0.2 0 0 0 0.2 0 0 0 0.2)
(0.2 0 0 0 0.2 0 0 0 0.2)
(0.2 0 0 0 0.2 0 0 0 0.2)
(0.2 0 0 0 0.2 0 0 0 0.2)
(0.2 0 0 0 0.2 0 0 0 0.2)
(0.2 0 0 0 0.2 0 0 0 0.2)
(0.2 0 0 0 0.2 0 0 0 0.2)
(0.2 0 0 0 0.2 0 0 0 0.2)
(0.2 0 0 0 0.2 0 0 0 0.2)
(0.2 0 0 0 0.2 0 0 0 0.2)
(0.2 0 0 0 0.2 0 0 0 0.2)
(0.2 0 0 0 0.2 0 0 0 0.2)
(0.2 0 0 0 0.2 0 0 0 0.2)
(0.2 0 0 0 0.2 0 0 0 0.2)
(0.2 0 0 0 0.2 0 0 0 0.2)
(0.2 0 0 0 0.2 0 0 0 0.2)
(0.2 0 0 0 0.2 0 0 0 0.2)
(0.2 0 0 0 0.2 0 0 0 0.2)
(0.2 0 0 0 0.2 0 0 0 0.2)
(0.2 0 0 0 0.2 0 0 0 0.2)
(0.2 0 0 0 0.2 0 0 0 0.2)
(0.2 0 0 0 0.2 0 0 0 0.2)
(0.2 0 0 0 0.2 0 0 0 0.2)
(0.2 0 0 0 0.2 0 0 0 0.2)
(0.2 0 0 0 0.2 0 0 0 0.2)
(0.2 0 0 0 0.2 0 0 0 0.2)
(0.2 0 0 0 0.2 0 0 0 0.2)
(0.2 0 0 0 0.2 0 0 0 0.2)
(0.2 0 0 0 0.2 0 0 0 0.2)
(0.2 0 0 0 0.2 0 0 0 0.2)
(0.2 0 0 0 0.2 0 0 0 0.2)
(0.2 0 0 0 0.2 0 0 0 0.2)
(0.2 0 0 0 0.2 0 0 0 0.2)
(0.2 0 0 0 0.2 0 0 0 0.2)
(0.2 0 0 0 0.2 0 0 0 0.2)
(0.2 0 0 0 0.2 0 0 0 0.2)
(0.2 0 0 0 0.2 0 0 0 0.2)
(0.2 0 0 0 0.2 0 0 0 0.2)
(0.2 0 0 0 0.2 0 0 0 0.2)
(0.2 0 0 0 0.2 0 0 0 0.2)
(0.2 0 0 0 0.2 0 0 0 0.2)
(0.2 0 0 0 0.2 0 0 0 0.2)
(0.2 0 0 0 0.2 0 0 0 0.2)
(0.2 0 0 0 0.2 0 0 0 0.2)
(0.2 0 0 0 0.2 0 0 0 0.2)
(0.2 0 0 0 0.2 0 0 0 0.2)
(0.2 0 0 0 0.2 0 0 0 0.2)
(0.2 0 0 0 0.2 0 0 0 0.2)
(0.2 0 0 0 0.2 0 0 0 0.2)
(0.2 0 0 0 0.2 0 0 0 0.2)
(0.2 0 0 0 0.2 0 0 0 0.2)
(0.2 0 0 0 0.2 0 0 0 0.2)
(0.2 0 0 0 0.2 0 0 0 0.2)
(0.2 0 0 0 0.2 0 0 0 0.2)
(0.2 0 0 0 0.2 0 0 0 0.2)
(0.2 0 0 0 0.2 0 0 0 0.2)
(0.2 0 0 0 0.2 0 0 0 0.2)
(0.2 0 0 0 0.2 0 0 0 0.2)
(0.2 0 0 0 0.2 0 0 0 0.2)
(0.2 0 0 0 0.2 0 0 0 0.2)
(0.2 0 0 0 0.2 0 0 0 0.2)
(0.2 0 0 0 0.2 0 0 0 0.2)
(0.2 0 0 0 0.2 0 0 0 0.2)
(0.2 0 0 0 0.2 0 0 0 0.2)
(0.2 0 0 0 0.2 0 0 0 0.2)
(0.2 0 0 0 0.2 0 0 0 0.2)
(0.2 0 0 0 0.2 0 0 0 0.2)
(0.2 0 0 0 0.2 0 0 0 0.2)
(0.2 0 0 0 0.2 0 0 0 0.2)
(0.2 0 0 0 0.2 0 0 0 0.2)
(0.2 0 0 0 0.2 0 0 0 0.2)
(0.2 0 0 0 0.2 0 0 0 0.2)
(0.2 0 0 0 0.2 0 0 0 0.2)
(0.2 0 0 0 0.2 0 0 0 0.2)
(0.2 0 0 0 0.2 0 0 0 0.2)
(0.2 0 0 0 0.2 0 0 0 0.2)
(0.2 0 0 0 0.2 0 0 0 0.2)
(0.2 0 0 0 0.2 0 0 0 0.2)
(0.2 0 0 0 0.2 0 0 0 0.2)
(0.2 0 0 0 0.2 0 0 0 0.2)
(0.2 0 0 0 0.2 0 0 0 0.2)
(0.2 0 0 0 0.2 0 0 0 0.2)
(0.2 0 0 0 0.2 0 0 0 0.2)
(0.2 0 0 0 0.2 0 0 0 0.2)
(0.2 0 0 0 0.2 0 0 0 0.2)
(0.2 0 0 0 0.2 0 0 0 0.2)
(0.2 0 0 0 0.2 0 0 0 0.2)
(0.2 0 0 0 0.2 0 0 0 0.2)
(0.2 0 0 0 0.2 0 0 0 0.2)
(0.2 0 0 0 0.2 0 0 0 0.2)
(0.2 0 0 0 0.2 0 0 0 0.2)
(0.2 0 0 0 0.2 0 0 0 0.2)
(0.2 0 0 0 0.2 0 0 0 0.2)
(0.2 0 0 0 0.2 0 0 0 0.2)
(0.2 0 0 0 0.2 0 0 0 0.2)
(0.2 0 0 0 0.2 0 0 0 0.2)
(0.2 0 0 0 0.2 0 0 0 0.2)
(0.2 0 0 0 0.2 0 0 0 0.2)
(0.2 0 0 0 0.2 0 0 0 0.2)
(0.2 0 0 0 0.2 0 0 0 0.2)
(0.2 0 0 0 0.2 0 0 0 0.2)
(0.2 0 0 0 0.2 0 0 0 0.2)
(0.2 0 0 0 0.2 0 0 0 0.2)
(0.2 0 0 0 0.2 0 0 0 0.2)
(0.2 0 0 0 0.2 0 0 0 0.2)
(0.2 0 0 0 0.2 0 0 0 0.2)
(0.2 0 0 0 0.2 0 0 0 0.2)
(0.2 0 0 0 0.2 0 0 0 0.2)
(0.2 0 0 0 0.2 0 0 0 0.2)
(0.2 0 0 0 0.2 0 0 0 0.2)
(0.2 0 0 0 0.2 0 0 0 0.2)
(0.2 0 0 0 0.2 0 0 0 0.2)
(0.2 0 0 0 0.2 0 0 0 0.2)
(0.2 0 0 0 0.2 0 0 0 0.2)
(0.2 0 0 0 0.2 0 0 0 0.2)
(0.2 0 0 0 0.2 0 0 0 0.2)
(0.2 0 0 0 0.2 0 0 0 0.2)
(0.2 0 0 0 0.2 0 0 0 0.2)
(0.2 0 0 0 0.2 0 0 0 0.2)
(0.2 0 0 0 0.2 0 0 0 0.2)
(0.2 0 0 0 0.2 0 0 0 0.2)
(0.2 0 0 0 0.2 0 0 0 0.2)
(0.2 0 0 0 0.2 0 0 0 0.2)
(0.2 0 0 0 0.2 0 0 0 0.2)
(0.2 0 0 0 0.2 0 0 0 0.2)
(0.2 0 0 0 0.2 0 0 0 0.2)
(0.2 0 0 0 0.2 0 0 0 0.2)
(0.2 0 0 0 0.2 0 0 0 0.2)
(0.2 0 0 0 0.2 0 0 0 0.2)
(0.2 0 0 0 0.2 0 0 0 0.2)
(0.2 0 0 0 0.2 0 0 0 0.2)
(0.2 0 0 0 0.2 0 0 0 0.2)
(0.2 0 0 0 0.2 0 0 0 0.2)
(0.2 0 0 0 0.2 0 0 0 0.2)
(0.2 0 0 0 0.2 0 0 0 0.2)
(0.2 0 0 0 0.2 0 0 0 0.2)
(0.2 0 0 0 0.2 0 0 0 0.2)
(0.2 0 0 0 0.2 0 0 0 0.2)
(0.2 0 0 0 0.2 0 0 0 0.2)
(0.2 0 0 0 0.2 0 0 0 0.2)
(0.2 0 0 0 0.2 0 0 0 0.2)
(0.2 0 0 0 0.2 0 0 0 0.2)
(0.2 0 0 0 0.2 0 0 0 0.2)
(0.2 0 0 0 0.2 0 0 0 0.2)
(0.2 0 0 0 0.2 0 0 0 0.2)
(0.2 0 0 0 0.2 0 0 0 0.2)
(0.2 0 0 0 0.2 0 0 0 0.2)
(0.2 0 0 0 0.2 0 0 0 0.2)
(0.2 0 0 0 0.2 0 0 0 0.2)
(0.2 0 0 0 0.2 0 0 0 0.2)
(0.2 0 0 0 0.2 0 0 0 0.2)
(0.2 0 0 0 0.2 0 0 0 0.2)
(0.2 0 0 0 0.2 0 0 0 0.2)
(0.2 0 0 0 0.2 0 0 0 0.2)
(0.2 0 0 0 0.2 0 0 0 0.2)
(0.2 0 0 0 0.2 0 0 0 0.2)
(0.2 0 0 0 0.2 0 0 0 0.2)
(0.2 0 0 0 0.2 0 0 0 0.2)
(0.2 0 0 0 0.2 0 0 0 0.2)
(0.2 0 0 0 0.2 0 0 0 0.2)
(0.2 0 0 0 0.2 0 0 0 0.2)
(0.2 0 0 0 0.2 0 0 0 0.2)
(0.2 0 0 0 0.2 0 0 0 0.2)
(0.2 0 0 0 0.2 0 0 0 0.2)
(0.2 0 0 0 0.2 0 0 0 0.2)
(0.2 0 0 0 0.2 0 0 0 0.2)
(0.2 0 0 0 0.2 0 0 0 0.2)
(0.2 0 0 0 0.2 0 0 0 0.2)
(0.2 0 0 0 0.2 0 0 0 0.2)
(0.2 0 0 0 0.2 0 0 0 0.2)
(0.2 0 0 0 0.2 0 0 0 0.2)
(0.2 0 0 0 0.2 0 0 0 0.2)
(0.2 0 0 0 0.2 0 0 0 0.2)
(0.2 0 0 0 0.2 0 0 0 0.2)
(0.2 0 0 0 0.2 0 0 0 0.2)
(0.2 0 0 0 0.2 0 0 0 0.2)
(0.2 0 0 0 0.2 0 0 0 0.2)
(0.2 0 0 0 0.2 0 0 0 0.2)
(0.2 0 0 0 0.2 0 0 0 0.2)
(0.2 0 0 0 0.2 0 0 0 0.2)
(0.2 0 0 0 0.2 0 0 0 0.2)
(0.2 0 0 0 0.2 0 0 0 0.2)
(0.2 0 0 0 0.2 0 0 0 0.2)
(0.2 0 0 0 0.2 0 0 0 0.2)
(0.2 0 0 0 0.2 0 0 0 0.2)
(0.2 0 0 0 0.2 0 0 0 0.2)
(0.2 0 0 0 0.2 0 0 0 0.2)
(0.2 0 0 0 0.2 0 0 0 0.2)
(0.2 0 0 0 0.2 0 0 0 0.2)
(0.2 0 0 0 0.2 0 0 0 0.2)
(0.2 0 0 0 0.2 0 0 0 0.2)
(0.2 0 0 0 0.2 0 0 0 0.2)
(0.2 0 0 0 0.2 0 0 0 0.2)
(0.2 0 0 0 0.2 0 0 0 0.2)
(0.2 0 0 0 0.2 0 0 0 0.2)
(0.2 0 0 0 0.2 0 0 0 0.2)
(0.2 0 0 0 0.2 0 0 0 0.2)
(0.2 0 0 0 0.2 0 0 0 0.2)
(0.2 0 0 0 0.2 0 0 0 0.2)
(0.2 0 0 0 0.2 0 0 0 0.2)
(0.2 0 0 0 0.2 0 0 0 0.2)
(0.2 0 0 0 0.2 0 0 0 0.2)
(0.2 0 0 0 0.2 0 0 0 0.2)
(0.2 0 0 0 0.2 0 0 0 0.2)
(0.2 0 0 0 0.2 0 0 0 0.2)
(0.2 0 0 0 0.2 0 0 0 0.2)
(0.2 0 0 0 0.2 0 0 0 0.2)
(0.2 0 0 0 0.2 0 0 0 0.2)
(0.2 0 0 0 0.2 0 0 0 0.2)
(0.2 0 0 0 0.2 0 0 0 0.2)
(0.2 0 0 0 0.2 0 0 0 0.2)
(0.2 0 0 0 0.2 0 0 0 0.2)
(0.2 0 0 0 0.2 0 0 0 0.2)
(0.2 0 0 0 0.2 0 0 0 0.2)
(0.2 0 0 0 0.2 0 0 0 0.2)
(0.2 0 0 0 0.2 0 0 0 0.2)
(0.2 0 0 0 0.2 0 0 0 0.2)
(0.2 0 0 0 0.2 0 0 0 0.2)
(0.2 0 0 0 0.2 0 0 0 0.2)
(0.2 0 0 0 0.2 0 0 0 0.2)
(0.2 0 0 0 0.2 0 0 0 0.2)
(0.2 0 0 0 0.2 0 0 0 0.2)
(0.2 0 0 0 0.2 0 0 0 0.2)
(0.2 0 0 0 0.2 0 0 0 0.2)
(0.2 0 0 0 0.2 0 0 0 0.2)
(0.2 0 0 0 0.2 0 0 0 0.2)
(0.2 0 0 0 0.2 0 0 0 0.2)
(0.2 0 0 0 0.2 0 0 0 0.2)
(0.2 0 0 0 0.2 0 0 0 0.2)
(0.2 0 0 0 0.2 0 0 0 0.2)
(0.2 0 0 0 0.2 0 0 0 0.2)
(0.2 0 0 0 0.2 0 0 0 0.2)
(0.2 0 0 0 0.2 0 0 0 0.2)
(0.2 0 0 0 0.2 0 0 0 0.2)
(0.2 0 0 0 0.2 0 0 0 0.2)
(0.2 0 0 0 0.2 0 0 0 0.2)
(0.2 0 0 0 0.2 0 0 0 0.2)
(0.2 0 0 0 0.2 0 0 0 0.2)
(0.2 0 0 0 0.2 0 0 0 0.2)
(0.2 0 0 0 0.2 0 0 0 0.2)
(0.2 0 0 0 0.2 0 0 0 0.2)
(0.2 0 0 0 0.2 0 0 0 0.2)
(0.2 0 0 0 0.2 0 0 0 0.2)
(0.2 0 0 0 0.2 0 0 0 0.2)
(0.2 0 0 0 0.2 0 0 0 0.2)
(0.2 0 0 0 0.2 0 0 0 0.2)
(0.2 0 0 0 0.2 0 0 0 0.2)
(0.2 0 0 0 0.2 0 0 0 0.2)
(0.2 0 0 0 0.2 0 0 0 0.2)
(0.2 0 0 0 0.2 0 0 0 0.2)
(0.2 0 0 0 0.2 0 0 0 0.2)
(0.2 0 0 0 0.2 0 0 0 0.2)
(0.2 0 0 0 0.2 0 0 0 0.2)
(0.2 0 0 0 0.2 0 0 0 0.2)
(0.2 0 0 0 0.2 0 0 0 0.2)
(0.2 0 0 0 0.2 0 0 0 0.2)
(0.2 0 0 0 0.2 0 0 0 0.2)
(0.2 0 0 0 0.2 0 0 0 0.2)
(0.2 0 0 0 0.2 0 0 0 0.2)
(0.2 0 0 0 0.2 0 0 0 0.2)
(0.2 0 0 0 0.2 0 0 0 0.2)
(0.2 0 0 0 0.2 0 0 0 0.2)
(0.2 0 0 0 0.2 0 0 0 0.2)
(0.2 0 0 0 0.2 0 0 0 0.2)
(0.2 0 0 0 0.2 0 0 0 0.2)
(0.2 0 0 0 0.2 0 0 0 0.2)
(0.2 0 0 0 0.2 0 0 0 0.2)
(0.2 0 0 0 0.2 0 0 0 0.2)
(0.2 0 0 0 0.2 0 0 0 0.2)
(0.2 0 0 0 0.2 0 0 0 0.2)
(0.2 0 0 0 0.2 0 0 0 0.2)
(0.2 0 0 0 0.2 0 0 0 0.2)
(0.2 0 0 0 0.2 0 0 0 0.2)
(0.2 0 0 0 0.2 0 0 0 0.2)
(0.2 0 0 0 0.2 0 0 0 0.2)
(0.2 0 0 0 0.2 0 0 0 0.2)
(0.2 0 0 0 0.2 0 0 0 0.2)
(0.2 0 0 0 0.2 0 0 0 0.2)
(0.2 0 0 0 0.2 0 0 0 0.2)
(0.2 0 0 0 0.2 0 0 0 0.2)
(0.2 0 0 0 0.2 0 0 0 0.2)
(0.2 0 0 0 0.2 0 0 0 0.2)
(0.2 0 0 0 0.2 0 0 0 0.2)
(0.2 0 0 0 0.2 0 0 0 0.2)
(0.2 0 0 0 0.2 0 0 0 0.2)
(0.2 0 0 0 0.2 0 0 0 0.2)
(0.2 0 0 0 0.2 0 0 0 0.2)
(0.2 0 0 0 0.2 0 0 0 0.2)
(0.2 0 0 0 0.2 0 0 0 0.2)
(0.2 0 0 0 0.2 0 0 0 0.2)
(0.2 0 0 0 0.2 0 0 0 0.2)
(0.2 0 0 0 0.2 0 0 0 0.2)
(0.2 0 0 0 0.2 0 0 0 0.2)
(0.2 0 0 0 0.2 0 0 0 0.2)
(0.2 0 0 0 0.2 0 0 0 0.2)
(0.2 0 0 0 0.2 0 0 0 0.2)
(0.2 0 0 0 0.2 0 0 0 0.2)
(0.2 0 0 0 0.2 0 0 0 0.2)
(0.2 0 0 0 0.2 0 0 0 0.2)
(0.2 0 0 0 0.2 0 0 0 0.2)
(0.2 0 0 0 0.2 0 0 0 0.2)
(0.2 0 0 0 0.2 0 0 0 0.2)
(0.2 0 0 0 0.2 0 0 0 0.2)
(0.2 0 0 0 0.2 0 0 0 0.2)
(0.2 0 0 0 0.2 0 0 0 0.2)
(0.2 0 0 0 0.2 0 0 0 0.2)
(0.2 0 0 0 0.2 0 0 0 0.2)
(0.2 0 0 0 0.2 0 0 0 0.2)
(0.2 0 0 0 0.2 0 0 0 0.2)
(0.2 0 0 0 0.2 0 0 0 0.2)
(0.2 0 0 0 0.2 0 0 0 0.2)
(0.2 0 0 0 0.2 0 0 0 0.2)
(0.2 0 0 0 0.2 0 0 0 0.2)
(0.2 0 0 0 0.2 0 0 0 0.2)
(0.2 0 0 0 0.2 0 0 0 0.2)
(0.2 0 0 0 0.2 0 0 0 0.2)
(0.2 0 0 0 0.2 0 0 0 0.2)
(0.2 0 0 0 0.2 0 0 0 0.2)
(0.2 0 0 0 0.2 0 0 0 0.2)
(0.2 0 0 0 0.2 0 0 0 0.2)
(0.2 0 0 0 0.2 0 0 0 0.2)
(0.2 0 0 0 0.2 0 0 0 0.2)
(0.2 0 0 0 0.2 0 0 0 0.2)
(0.2 0 0 0 0.2 0 0 0 0.2)
(0.2 0 0 0 0.2 0 0 0 0.2)
(0.2 0 0 0 0.2 0 0 0 0.2)
(0.2 0 0 0 0.2 0 0 0 0.2)
(0.2 0 0 0 0.2 0 0 0 0.2)
(0.2 0 0 0 0.2 0 0 0 0.2)
(0.2 0 0 0 0.2 0 0 0 0.2)
(0.2 0 0 0 0.2 0 0 0 0.2)
(0.2 0 0 0 0.2 0 0 0 0.2)
(0.2 0 0 0 0.2 0 0 0 0.2)
(0.2 0 0 0 0.2 0 0 0 0.2)
(0.2 0 0 0 0.2 0 0 0 0.2)
(0.2 0 0 0 0.2 0 0 0 0.2)
(0.2 0 0 0 0.2 0 0 0 0.2)
(0.2 0 0 0 0.2 0 0 0 0.2)
(0.2 0 0 0 0.2 0 0 0 0.2)
(0.2 0 0 0 0.2 0 0 0 0.2)
(0.2 0 0 0 0.2 0 0 0 0.2)
(0.2 0 0 0 0.2 0 0 0 0.2)
(0.2 0 0 0 0.2 0 0 0 0.2)
(0.2 0 0 0 0.2 0 0 0 0.2)
(0.2 0 0 0 0.2 0 0 0 0.2)
(0.2 0 0 0 0.2 0 0 0 0.2)
(0.2 0 0 0 0.2 0 0 0 0.2)
(0.2 0 0 0 0.2 0 0 0 0.2)
(0.2 0 0 0 0.2 0 0 0 0.2)
(0.2 0 0 0 0.2 0 0 0 0.2)
(0.2 0 0 0 0.2 0 0 0 0.2)
(0.2 0 0 0 0.2 0 0 0 0.2)
(0.2 0 0 0 0.2 0 0 0 0.2)
(0.2 0 0 0 0.2 0 0 0 0.2)
(0.2 0 0 0 0.2 0 0 0 0.2)
(0.2 0 0 0 0.2 0 0 0 0.2)
(0.2 0 0 0 0.2 0 0 0 0.2)
(0.2 0 0 0 0.2 0 0 0 0.2)
(0.2 0 0 0 0.2 0 0 0 0.2)
(0.2 0 0 0 0.2 0 0 0 0.2)
(0.2 0 0 0 0.2 0 0 0 0.2)
(0.2 0 0 0 0.2 0 0 0 0.2)
(0.2 0 0 0 0.2 0 0 0 0.2)
(0.2 0 0 0 0.2 0 0 0 0.2)
(0.2 0 0 0 0.2 0 0 0 0.2)
(0.2 0 0 0 0.2 0 0 0 0.2)
(0.2 0 0 0 0.2 0 0 0 0.2)
(0.2 0 0 0 0.2 0 0 0 0.2)
(0.2 0 0 0 0.2 0 0 0 0.2)
(0.2 0 0 0 0.2 0 0 0 0.2)
(0.2 0 0 0 0.2 0 0 0 0.2)
(0.2 0 0 0 0.2 0 0 0 0.2)
(0.2 0 0 0 0.2 0 0 0 0.2)
(0.2 0 0 0 0.2 0 0 0 0.2)
(0.2 0 0 0 0.2 0 0 0 0.2)
(0.2 0 0 0 0.2 0 0 0 0.2)
(0.2 0 0 0 0.2 0 0 0 0.2)
(0.2 0 0 0 0.2 0 0 0 0.2)
(0.2 0 0 0 0.2 0 0 0 0.2)
(0.2 0 0 0 0.2 0 0 0 0.2)
(0.2 0 0 0 0.2 0 0 0 0.2)
(0.2 0 0 0 0.2 0 0 0 0.2)
(0.2 0 0 0 0.2 0 0 0 0.2)
(0.2 0 0 0 0.2 0 0 0 0.2)
(0.2 0 0 0 0.2 0 0 0 0.2)
(0.2 0 0 0 0.2 0 0 0 0.2)
(0.2 0 0 0 0.2 0 0 0 0.2)
(0.2 0 0 0 0.2 0 0 0 0.2)
(0.2 0 0 0 0.2 0 0 0 0.2)
(0.2 0 0 0 0.2 0 0 0 0.2)
(0.2 0 0 0 0.2 0 0 0 0.2)
(0.2 0 0 0 0.2 0 0 0 0.2)
(0.2 0 0 0 0.2 0 0 0 0.2)
(0.2 0 0 0 0.2 0 0 0 0.2)
(0.2 0 0 0 0.2 0 0 0 0.2)
(0.2 0 0 0 0.2 0 0 0 0.2)
(0.2 0 0 0 0.2 0 0 0 0.2)
(0.2 0 0 0 0.2 0 0 0 0.2)
(0.2 0 0 0 0.2 0 0 0 0.2)
(0.2 0 0 0 0.2 0 0 0 0.2)
(0.2 0 0 0 0.2 0 0 0 0.2)
(0.2 0 0 0 0.2 0 0 0 0.2)
(0.2 0 0 0 0.2 0 0 0 0.2)
(0.2 0 0 0 0.2 0 0 0 0.2)
(0.2 0 0 0 0.2 0 0 0 0.2)
(0.2 0 0 0 0.2 0 0 0 0.2)
(0.2 0 0 0 0.2 0 0 0 0.2)
(0.2 0 0 0 0.2 0 0 0 0.2)
(0.2 0 0 0 0.2 0 0 0 0.2)
(0.2 0 0 0 0.2 0 0 0 0.2)
(0.2 0 0 0 0.2 0 0 0 0.2)
(0.2 0 0 0 0.2 0 0 0 0.2)
(0.2 0 0 0 0.2 0 0 0 0.2)
(0.2 0 0 0 0.2 0 0 0 0.2)
(0.2 0 0 0 0.2 0 0 0 0.2)
(0.2 0 0 0 0.2 0 0 0 0.2)
(0.2 0 0 0 0.2 0 0 0 0.2)
(0.2 0 0 0 0.2 0 0 0 0.2)
(0.2 0 0 0 0.2 0 0 0 0.2)
(0.2 0 0 0 0.2 0 0 0 0.2)
(0.2 0 0 0 0.2 0 0 0 0.2)
(0.2 0 0 0 0.2 0 0 0 0.2)
(0.2 0 0 0 0.2 0 0 0 0.2)
(0.2 0 0 0 0.2 0 0 0 0.2)
(0.2 0 0 0 0.2 0 0 0 0.2)
(0.2 0 0 0 0.2 0 0 0 0.2)
(0.2 0 0 0 0.2 0 0 0 0.2)
(0.2 0 0 0 0.2 0 0 0 0.2)
(0.2 0 0 0 0.2 0 0 0 0.2)
(0.2 0 0 0 0.2 0 0 0 0.2)
(0.2 0 0 0 0.2 0 0 0 0.2)
(0.2 0 0 0 0.2 0 0 0 0.2)
(0.2 0 0 0 0.2 0 0 0 0.2)
(0.2 0 0 0 0.2 0 0 0 0.2)
(0.2 0 0 0 0.2 0 0 0 0.2)
(0.2 0 0 0 0.2 0 0 0 0.2)
(0.2 0 0 0 0.2 0 0 0 0.2)
(0.2 0 0 0 0.2 0 0 0 0.2)
(0.2 0 0 0 0.2 0 0 0 0.2)
(0.2 0 0 0 0.2 0 0 0 0.2)
(0.2 0 0 0 0.2 0 0 0 0.2)
(0.2 0 0 0 0.2 0 0 0 0.2)
(0.2 0 0 0 0.2 0 0 0 0.2)
(0.2 0 0 0 0.2 0 0 0 0.2)
(0.2 0 0 0 0.2 0 0 0 0.2)
(0.2 0 0 0 0.2 0 0 0 0.2)
(0.2 0 0 0 0.2 0 0 0 0.2)
(0.2 0 0 0 0.2 0 0 0 0.2)
(0.2 0 0 0 0.2 0 0 0 0.2)
(0.2 0 0 0 0.2 0 0 0 0.2)
(0.2 0 0 0 0.2 0 0 0 0.2)
(0.2 0 0 0 0.2 0 0 0 0.2)
(0.2 0 0 0 0.2 0 0 0 0.2)
(0.2 0 0 0 0.2 0 0 0 0.2)
(0.2 0 0 0 0.2 0 0 0 0.2)
(0.2 0 0 0 0.2 0 0 0 0.2)
(0.2 0 0 0 0.2 0 0 0 0.2)
(0.2 0 0 0 0.2 0 0 0 0.2)
(0.2 0 0 0 0.2 0 0 0 0.2)
(0.2 0 0 0 0.2 0 0 0 0.2)
(0.2 0 0 0 0.2 0 0 0 0.2)
(0.2 0 0 0 0.2 0 0 0 0.2)
(0.2 0 0 0 0.2 0 0 0 0.2)
(0.2 0 0 0 0.2 0 0 0 0.2)
(0.2 0 0 0 0.2 0 0 0 0.2)
(0.2 0 0 0 0.2 0 0 0 0.2)
(0.2 0 0 0 0.2 0 0 0 0.2)
(0.2 0 0 0 0.2 0 0 0 0.2)
(0.2 0 0 0 0.2 0 0 0 0.2)
(0.2 0 0 0 0.2 0 0 0 0.2)
(0.2 0 0 0 0.2 0 0 0 0.2)
(0.2 0 0 0 0.2 0 0 0 0.2)
(0.2 0 0 0 0.2 0 0 0 0.2)
(0.2 0 0 0 0.2 0 0 0 0.2)
(0.2 0 0 0 0.2 0 0 0 0.2)
(0.2 0 0 0 0.2 0 0 0 0.2)
(0.2 0 0 0 0.2 0 0 0 0.2)
(0.2 0 0 0 0.2 0 0 0 0.2)
(0.2 0 0 0 0.2 0 0 0 0.2)
(0.2 0 0 0 0.2 0 0 0 0.2)
(0.2 0 0 0 0.2 0 0 0 0.2)
(0.2 0 0 0 0.2 0 0 0 0.2)
(0.2 0 0 0 0.2 0 0 0 0.2)
(0.2 0 0 0 0.2 0 0 0 0.2)
(0.2 0 0 0 0.2 0 0 0 0.2)
(0.2 0 0 0 0.2 0 0 0 0.2)
(0.2 0 0 0 0.2 0 0 0 0.2)
(0.2 0 0 0 0.2 0 0 0 0.2)
(0.2 0 0 0 0.2 0 0 0 0.2)
(0.2 0 0 0 0.2 0 0 0 0.2)
(0.2 0 0 0 0.2 0 0 0 0.2)
(0.2 0 0 0 0.2 0 0 0 0.2)
(0.2 0 0 0 0.2 0 0 0 0.2)
(0.2 0 0 0 0.2 0 0 0 0.2)
(0.2 0 0 0 0.2 0 0 0 0.2)
(0.2 0 0 0 0.2 0 0 0 0.2)
(0.2 0 0 0 0.2 0 0 0 0.2)
(0.2 0 0 0 0.2 0 0 0 0.2)
(0.2 0 0 0 0.2 0 0 0 0.2)
(0.2 0 0 0 0.2 0 0 0 0.2)
(0.2 0 0 0 0.2 0 0 0 0.2)
(0.2 0 0 0 0.2 0 0 0 0.2)
(0.2 0 0 0 0.2 0 0 0 0.2)
(0.2 0 0 0 0.2 0 0 0 0.2)
(0.2 0 0 0 0.2 0 0 0 0.2)
(0.2 0 0 0 0.2 0 0 0 0.2)
(0.2 0 0 0 0.2 0 0 0 0.2)
(0.2 0 0 0 0.2 0 0 0 0.2)
(0.2 0 0 0 0.2 0 0 0 0.2)
(0.2 0 0 0 0.2 0 0 0 0.2)
(0.2 0 0 0 0.2 0 0 0 0.2)
(0.2 0 0 0 0.2 0 0 0 0.2)
(0.2 0 0 0 0.2 0 0 0 0.2)
(0.2 0 0 0 0.2 0 0 0 0.2)
(0.2 0 0 0 0.2 0 0 0 0.2)
(0.2 0 0 0 0.2 0 0 0 0.2)
(0.2 0 0 0 0.2 0 0 0 0.2)
(0.2 0 0 0 0.2 0 0 0 0.2)
(0.2 0 0 0 0.2 0 0 0 0.2)
(0.2 0 0 0 0.2 0 0 0 0.2)
(0.2 0 0 0 0.2 0 0 0 0.2)
(0.2 0 0 0 0.2 0 0 0 0.2)
(0.2 0 0 0 0.2 0 0 0 0.2)
(0.2 0 0 0 0.2 0 0 0 0.2)
(0.2 0 0 0 0.2 0 0 0 0.2)
(0.2 0 0 0 0.2 0 0 0 0.2)
(0.2 0 0 0 0.2 0 0 0 0.2)
(0.2 0 0 0 0.2 0 0 0 0.2)
(0.2 0 0 0 0.2 0 0 0 0.2)
(0.2 0 0 0 0.2 0 0 0 0.2)
(0.2 0 0 0 0.2 0 0 0 0.2)
(0.2 0 0 0 0.2 0 0 0 0.2)
(0.2 0 0 0 0.2 0 0 0 0.2)
(0.2 0 0 0 0.2 0 0 0 0.2)
(0.2 0 0 0 0.2 0 0 0 0.2)
(0.2 0 0 0 0.2 0 0 0 0.2)
(0.2 0 0 0 0.2 0 0 0 0.2)
(0.2 0 0 0 0.2 0 0 0 0.2)
(0.2 0 0 0 0.2 0 0 0 0.2)
(0.2 0 0 0 0.2 0 0 0 0.2)
(0.2 0 0 0 0.2 0 0 0 0.2)
(0.2 0 0 0 0.2 0 0 0 0.2)
(0.2 0 0 0 0.2 0 0 0 0.2)
(0.2 0 0 0 0.2 0 0 0 0.2)
(0.2 0 0 0 0.2 0 0 0 0.2)
(0.2 0 0 0 0.2 0 0 0 0.2)
(0.2 0 0 0 0.2 0 0 0 0.2)
(0.2 0 0 0 0.2 0 0 0 0.2)
(0.2 0 0 0 0.2 0 0 0 0.2)
(0.2 0 0 0 0.2 0 0 0 0.2)
(0.2 0 0 0 0.2 0 0 0 0.2)
(0.2 0 0 0 0.2 0 0 0 0.2)
(0.2 0 0 0 0.2 0 0 0 0.2)
(0.2 0 0 0 0.2 0 0 0 0.2)
(0.2 0 0 0 0.2 0 0 0 0.2)
(0.19216 0 0 0 0.19216 0 0 0 0.19216)
(0.11137 0 0 0 0.11137 0 0 0 0.11137)
(0.18039 0 0 0 0.18039 0 0 0 0.18039)
(0.18353 0 0 0 0.18353 0 0 0 0.18353)
(0.19294 0 0 0 0.19294 0 0 0 0.19294)
(0.19608 0 0 0 0.19608 0 0 0 0.19608)
(0.2 0 0 0 0.2 0 0 0 0.2)
(0.2 0 0 0 0.2 0 0 0 0.2)
(0.2 0 0 0 0.2 0 0 0 0.2)
(0.2 0 0 0 0.2 0 0 0 0.2)
(0.2 0 0 0 0.2 0 0 0 0.2)
(0.2 0 0 0 0.2 0 0 0 0.2)
(0.2 0 0 0 0.2 0 0 0 0.2)
(0.2 0 0 0 0.2 0 0 0 0.2)
(0.2 0 0 0 0.2 0 0 0 0.2)
(0.2 0 0 0 0.2 0 0 0 0.2)
(0.2 0 0 0 0.2 0 0 0 0.2)
(0.2 0 0 0 0.2 0 0 0 0.2)
(0.2 0 0 0 0.2 0 0 0 0.2)
(0.2 0 0 0 0.2 0 0 0 0.2)
(0.2 0 0 0 0.2 0 0 0 0.2)
(0.2 0 0 0 0.2 0 0 0 0.2)
(0.2 0 0 0 0.2 0 0 0 0.2)
(0.2 0 0 0 0.2 0 0 0 0.2)
(0.2 0 0 0 0.2 0 0 0 0.2)
(0.2 0 0 0 0.2 0 0 0 0.2)
(0.2 0 0 0 0.2 0 0 0 0.2)
(0.2 0 0 0 0.2 0 0 0 0.2)
(0.2 0 0 0 0.2 0 0 0 0.2)
(0.2 0 0 0 0.2 0 0 0 0.2)
(0.2 0 0 0 0.2 0 0 0 0.2)
(0.2 0 0 0 0.2 0 0 0 0.2)
(0.2 0 0 0 0.2 0 0 0 0.2)
(0.2 0 0 0 0.2 0 0 0 0.2)
(0.2 0 0 0 0.2 0 0 0 0.2)
(0.2 0 0 0 0.2 0 0 0 0.2)
(0.2 0 0 0 0.2 0 0 0 0.2)
(0.2 0 0 0 0.2 0 0 0 0.2)
(0.2 0 0 0 0.2 0 0 0 0.2)
(0.2 0 0 0 0.2 0 0 0 0.2)
(0.2 0 0 0 0.2 0 0 0 0.2)
(0.2 0 0 0 0.2 0 0 0 0.2)
(0.2 0 0 0 0.2 0 0 0 0.2)
(0.2 0 0 0 0.2 0 0 0 0.2)
(0.2 0 0 0 0.2 0 0 0 0.2)
(0.2 0 0 0 0.2 0 0 0 0.2)
(0.2 0 0 0 0.2 0 0 0 0.2)
(0.2 0 0 0 0.2 0 0 0 0.2)
(0.2 0 0 0 0.2 0 0 0 0.2)
(0.2 0 0 0 0.2 0 0 0 0.2)
(0.2 0 0 0 0.2 0 0 0 0.2)
(0.2 0 0 0 0.2 0 0 0 0.2)
(0.2 0 0 0 0.2 0 0 0 0.2)
(0.2 0 0 0 0.2 0 0 0 0.2)
(0.2 0 0 0 0.2 0 0 0 0.2)
(0.2 0 0 0 0.2 0 0 0 0.2)
(0.2 0 0 0 0.2 0 0 0 0.2)
(0.2 0 0 0 0.2 0 0 0 0.2)
(0.2 0 0 0 0.2 0 0 0 0.2)
(0.2 0 0 0 0.2 0 0 0 0.2)
(0.2 0 0 0 0.2 0 0 0 0.2)
(0.2 0 0 0 0.2 0 0 0 0.2)
(0.2 0 0 0 0.2 0 0 0 0.2)
(0.2 0 0 0 0.2 0 0 0 0.2)
(0.2 0 0 0 0.2 0 0 0 0.2)
(0.2 0 0 0 0.2 0 0 0 0.2)
(0.2 0 0 0 0.2 0 0 0 0.2)
(0.2 0 0 0 0.2 0 0 0 0.2)
(0.2 0 0 0 0.2 0 0 0 0.2)
(0.2 0 0 0 0.2 0 0 0 0.2)
(0.2 0 0 0 0.2 0 0 0 0.2)
(0.2 0 0 0 0.2 0 0 0 0.2)
(0.2 0 0 0 0.2 0 0 0 0.2)
(0.2 0 0 0 0.2 0 0 0 0.2)
(0.2 0 0 0 0.2 0 0 0 0.2)
(0.2 0 0 0 0.2 0 0 0 0.2)
(0.2 0 0 0 0.2 0 0 0 0.2)
(0.2 0 0 0 0.2 0 0 0 0.2)
(0.2 0 0 0 0.2 0 0 0 0.2)
(0.2 0 0 0 0.2 0 0 0 0.2)
(0.2 0 0 0 0.2 0 0 0 0.2)
(0.2 0 0 0 0.2 0 0 0 0.2)
(0.2 0 0 0 0.2 0 0 0 0.2)
(0.2 0 0 0 0.2 0 0 0 0.2)
(0.2 0 0 0 0.2 0 0 0 0.2)
(0.2 0 0 0 0.2 0 0 0 0.2)
(0.2 0 0 0 0.2 0 0 0 0.2)
(0.2 0 0 0 0.2 0 0 0 0.2)
(0.2 0 0 0 0.2 0 0 0 0.2)
(0.2 0 0 0 0.2 0 0 0 0.2)
(0.2 0 0 0 0.2 0 0 0 0.2)
(0.2 0 0 0 0.2 0 0 0 0.2)
(0.2 0 0 0 0.2 0 0 0 0.2)
(0.2 0 0 0 0.2 0 0 0 0.2)
(0.2 0 0 0 0.2 0 0 0 0.2)
(0.2 0 0 0 0.2 0 0 0 0.2)
(0.2 0 0 0 0.2 0 0 0 0.2)
(0.2 0 0 0 0.2 0 0 0 0.2)
(0.2 0 0 0 0.2 0 0 0 0.2)
(0.2 0 0 0 0.2 0 0 0 0.2)
(0.2 0 0 0 0.2 0 0 0 0.2)
(0.2 0 0 0 0.2 0 0 0 0.2)
(0.2 0 0 0 0.2 0 0 0 0.2)
(0.2 0 0 0 0.2 0 0 0 0.2)
(0.2 0 0 0 0.2 0 0 0 0.2)
(0.2 0 0 0 0.2 0 0 0 0.2)
(0.2 0 0 0 0.2 0 0 0 0.2)
(0.2 0 0 0 0.2 0 0 0 0.2)
(0.2 0 0 0 0.2 0 0 0 0.2)
(0.2 0 0 0 0.2 0 0 0 0.2)
(0.2 0 0 0 0.2 0 0 0 0.2)
(0.2 0 0 0 0.2 0 0 0 0.2)
(0.2 0 0 0 0.2 0 0 0 0.2)
(0.2 0 0 0 0.2 0 0 0 0.2)
(0.2 0 0 0 0.2 0 0 0 0.2)
(0.2 0 0 0 0.2 0 0 0 0.2)
(0.2 0 0 0 0.2 0 0 0 0.2)
(0.2 0 0 0 0.2 0 0 0 0.2)
(0.2 0 0 0 0.2 0 0 0 0.2)
(0.2 0 0 0 0.2 0 0 0 0.2)
(0.2 0 0 0 0.2 0 0 0 0.2)
(0.2 0 0 0 0.2 0 0 0 0.2)
(0.2 0 0 0 0.2 0 0 0 0.2)
(0.2 0 0 0 0.2 0 0 0 0.2)
(0.2 0 0 0 0.2 0 0 0 0.2)
(0.2 0 0 0 0.2 0 0 0 0.2)
(0.2 0 0 0 0.2 0 0 0 0.2)
(0.2 0 0 0 0.2 0 0 0 0.2)
(0.2 0 0 0 0.2 0 0 0 0.2)
(0.2 0 0 0 0.2 0 0 0 0.2)
(0.2 0 0 0 0.2 0 0 0 0.2)
(0.2 0 0 0 0.2 0 0 0 0.2)
(0.2 0 0 0 0.2 0 0 0 0.2)
(0.2 0 0 0 0.2 0 0 0 0.2)
(0.2 0 0 0 0.2 0 0 0 0.2)
(0.2 0 0 0 0.2 0 0 0 0.2)
(0.2 0 0 0 0.2 0 0 0 0.2)
(0.2 0 0 0 0.2 0 0 0 0.2)
(0.2 0 0 0 0.2 0 0 0 0.2)
(0.2 0 0 0 0.2 0 0 0 0.2)
(0.2 0 0 0 0.2 0 0 0 0.2)
(0.2 0 0 0 0.2 0 0 0 0.2)
(0.2 0 0 0 0.2 0 0 0 0.2)
(0.2 0 0 0 0.2 0 0 0 0.2)
(0.2 0 0 0 0.2 0 0 0 0.2)
(0.2 0 0 0 0.2 0 0 0 0.2)
(0.2 0 0 0 0.2 0 0 0 0.2)
(0.2 0 0 0 0.2 0 0 0 0.2)
(0.2 0 0 0 0.2 0 0 0 0.2)
(0.19843 0 0 0 0.19843 0 0 0 0.19843)
(0.16078 0 0 0 0.16078 0 0 0 0.16078)
(0.002 0 0 0 0.002 0 0 0 0.002)
(0.002 0 0 0 0.002 0 0 0 0.002)
(0.002 0 0 0 0.002 0 0 0 0.002)
(0.040784 0 0 0 0.040784 0 0 0 0.040784)
(0.061961 0 0 0 0.061961 0 0 0 0.061961)
(0.15922 0 0 0 0.15922 0 0 0 0.15922)
(0.16863 0 0 0 0.16863 0 0 0 0.16863)
(0.17176 0 0 0 0.17176 0 0 0 0.17176)
(0.18667 0 0 0 0.18667 0 0 0 0.18667)
(0.1898 0 0 0 0.1898 0 0 0 0.1898)
(0.2 0 0 0 0.2 0 0 0 0.2)
(0.2 0 0 0 0.2 0 0 0 0.2)
(0.2 0 0 0 0.2 0 0 0 0.2)
(0.2 0 0 0 0.2 0 0 0 0.2)
(0.2 0 0 0 0.2 0 0 0 0.2)
(0.2 0 0 0 0.2 0 0 0 0.2)
(0.2 0 0 0 0.2 0 0 0 0.2)
(0.2 0 0 0 0.2 0 0 0 0.2)
(0.2 0 0 0 0.2 0 0 0 0.2)
(0.2 0 0 0 0.2 0 0 0 0.2)
(0.2 0 0 0 0.2 0 0 0 0.2)
(0.2 0 0 0 0.2 0 0 0 0.2)
(0.2 0 0 0 0.2 0 0 0 0.2)
(0.2 0 0 0 0.2 0 0 0 0.2)
(0.2 0 0 0 0.2 0 0 0 0.2)
(0.2 0 0 0 0.2 0 0 0 0.2)
(0.2 0 0 0 0.2 0 0 0 0.2)
(0.2 0 0 0 0.2 0 0 0 0.2)
(0.2 0 0 0 0.2 0 0 0 0.2)
(0.2 0 0 0 0.2 0 0 0 0.2)
(0.2 0 0 0 0.2 0 0 0 0.2)
(0.2 0 0 0 0.2 0 0 0 0.2)
(0.2 0 0 0 0.2 0 0 0 0.2)
(0.2 0 0 0 0.2 0 0 0 0.2)
(0.2 0 0 0 0.2 0 0 0 0.2)
(0.2 0 0 0 0.2 0 0 0 0.2)
(0.2 0 0 0 0.2 0 0 0 0.2)
(0.2 0 0 0 0.2 0 0 0 0.2)
(0.2 0 0 0 0.2 0 0 0 0.2)
(0.2 0 0 0 0.2 0 0 0 0.2)
(0.2 0 0 0 0.2 0 0 0 0.2)
(0.2 0 0 0 0.2 0 0 0 0.2)
(0.2 0 0 0 0.2 0 0 0 0.2)
(0.2 0 0 0 0.2 0 0 0 0.2)
(0.2 0 0 0 0.2 0 0 0 0.2)
(0.2 0 0 0 0.2 0 0 0 0.2)
(0.2 0 0 0 0.2 0 0 0 0.2)
(0.2 0 0 0 0.2 0 0 0 0.2)
(0.2 0 0 0 0.2 0 0 0 0.2)
(0.2 0 0 0 0.2 0 0 0 0.2)
(0.2 0 0 0 0.2 0 0 0 0.2)
(0.2 0 0 0 0.2 0 0 0 0.2)
(0.2 0 0 0 0.2 0 0 0 0.2)
(0.2 0 0 0 0.2 0 0 0 0.2)
(0.2 0 0 0 0.2 0 0 0 0.2)
(0.2 0 0 0 0.2 0 0 0 0.2)
(0.2 0 0 0 0.2 0 0 0 0.2)
(0.2 0 0 0 0.2 0 0 0 0.2)
(0.2 0 0 0 0.2 0 0 0 0.2)
(0.2 0 0 0 0.2 0 0 0 0.2)
(0.2 0 0 0 0.2 0 0 0 0.2)
(0.2 0 0 0 0.2 0 0 0 0.2)
(0.2 0 0 0 0.2 0 0 0 0.2)
(0.2 0 0 0 0.2 0 0 0 0.2)
(0.2 0 0 0 0.2 0 0 0 0.2)
(0.2 0 0 0 0.2 0 0 0 0.2)
(0.2 0 0 0 0.2 0 0 0 0.2)
(0.2 0 0 0 0.2 0 0 0 0.2)
(0.2 0 0 0 0.2 0 0 0 0.2)
(0.2 0 0 0 0.2 0 0 0 0.2)
(0.2 0 0 0 0.2 0 0 0 0.2)
(0.2 0 0 0 0.2 0 0 0 0.2)
(0.2 0 0 0 0.2 0 0 0 0.2)
(0.2 0 0 0 0.2 0 0 0 0.2)
(0.2 0 0 0 0.2 0 0 0 0.2)
(0.2 0 0 0 0.2 0 0 0 0.2)
(0.2 0 0 0 0.2 0 0 0 0.2)
(0.2 0 0 0 0.2 0 0 0 0.2)
(0.2 0 0 0 0.2 0 0 0 0.2)
(0.2 0 0 0 0.2 0 0 0 0.2)
(0.2 0 0 0 0.2 0 0 0 0.2)
(0.2 0 0 0 0.2 0 0 0 0.2)
(0.2 0 0 0 0.2 0 0 0 0.2)
(0.2 0 0 0 0.2 0 0 0 0.2)