/*--------------------------------*- C++ -*----------------------------------*\
| =========                 |                                                 |
| \\      /  F ield         | OpenFOAM: The Open Source CFD Toolbox           |
|  \\    /   O peration     | Version:  1.5                                   |
|   \\  /    A nd           | Web:      http://www.OpenFOAM.org               |
|    \\/     M anipulation  |                                                 |
\*---------------------------------------------------------------------------*/
FoamFile
{
    version     2.0;
    format      ascii;
    class       dictionary;
    object      blockMeshDict;
}
// * * * * * * * * * * * * * * * * * * * * * * * * * * * * * * * * * * * * * //

convertToMeters 1;

vertices
(
	(0    0   0 )
	(1000 0   0 )
	(1000 25  0 )
	(0    25  0 )
	(0    0  -25)
	(1000 0  -25)
	(1000 25 -25)
	(0    25 -25)
);

blocks
(
	hex (0 1 2 3 4 5 6 7) (4 1 1) simpleGrading (1 1 1)
);

edges
(
);

patches
(
	patch left
	(
		(0 4 7 3)
	)
	patch right
	(
		(2 6 5 1)
	)
	empty contourUD
	(
		(3 7 6 2)
		(1 5 4 0)
	)
	empty contourFB
	(
		(0 3 2 1)
		(4 5 6 7)
	)
);

mergePatchPairs 
(
);
// ************************************************************************* //
