/*--------------------------------*- C++ -*----------------------------------*\
| =========                 |                                                 |
| \\      /  F ield         | OpenFOAM: The Open Source CFD Toolbox           |
|  \\    /   O peration     | Version:  1.5                                   |
|   \\  /    A nd           | Web:      http://www.OpenFOAM.org               |
|    \\/     M anipulation  |                                                 |
\*---------------------------------------------------------------------------*/
FoamFile
{
    version     2.0;
    format      ascii;
    class       dictionary;
    object      blockMeshDict;
}
// * * * * * * * * * * * * * * * * * * * * * * * * * * * * * * * * * * * * * //

convertToMeters 1;

vertices
(
	(0 0 -50)
	(1200 0 -50)
	(1200 1200 -50)
	(0 1200 -50)
	(0 0 50)
	(1200 0 50)
	(1200 1200 50)
	(0 1200 50)
);

blocks
(
	hex (0 1 2 3 4 5 6 7) (30 30 1) simpleGrading (1 1 1)
);

edges
(
);

patches
(
	patch left
	(
		(0 4 7 3)
	)
	patch right
	(
		(2 6 5 1)
	)
	patch up
	(
		(3 7 6 2)
	)
	patch down
	(
		(1 5 4 0)
	)
	empty frontAndBack
	(
		(0 3 2 1)
		(4 5 6 7)
	)
);

mergePatchPairs 
(
);
// ************************************************************************* //
