/*--------------------------------*- C++ -*----------------------------------*\
| =========                 |                                                 |
| \\      /  F ield         | OpenFOAM: The Open Source CFD Toolbox           |
|  \\    /   O peration     | Version:  1.6                                   |
|   \\  /    A nd           | Web:      www.OpenFOAM.org                      |
|    \\/     M anipulation  |                                                 |
\*---------------------------------------------------------------------------*/
FoamFile
{
    version     2.0;
    format      ascii;
    class       polyBoundaryMesh;
    location    "constant/polyMesh";
    object      boundary;
}
// * * * * * * * * * * * * * * * * * * * * * * * * * * * * * * * * * * * * * //

5
(
    left
    {
        type            patch;
        nFaces          30;
        startFace       1740;
    }
    right
    {
        type            patch;
        nFaces          30;
        startFace       1770;
    }
    up
    {
        type            patch;
        nFaces          30;
        startFace       1800;
    }
    down
    {
        type            patch;
        nFaces          30;
        startFace       1830;
    }
    frontAndBack
    {
        type            empty;
        nFaces          1800;
        startFace       1860;
    }
)

// ************************************************************************* //
