/*--------------------------------*- C++ -*----------------------------------*\
| =========                 |                                                 |
| \\      /  F ield         | OpenFOAM: The Open Source CFD Toolbox           |
|  \\    /   O peration     | Version:  2.1.0                                 |
|   \\  /    A nd           | Web:      www.OpenFOAM.org                      |
|    \\/     M anipulation  |                                                 |
\*---------------------------------------------------------------------------*/
FoamFile
{
    version     2.0;
    format      ascii;
    class       volTensorField;
    object      K;
}
// * * * * * * * * * * * * * * * * * * * * * * * * * * * * * * * * * * * * * //

dimensions      [0 2 0 0 0 0 0];

internalField   nonuniform List<tensor> 
15000
(
(0.2 0 0 0 0.2 0 0 0 0.2)
(0.2 0 0 0 0.2 0 0 0 0.2)
(0.2 0 0 0 0.2 0 0 0 0.2)
(0.2 0 0 0 0.2 0 0 0 0.2)
(0.2 0 0 0 0.2 0 0 0 0.2)
(0.2 0 0 0 0.2 0 0 0 0.2)
(0.2 0 0 0 0.2 0 0 0 0.2)
(0.2 0 0 0 0.2 0 0 0 0.2)
(0.2 0 0 0 0.2 0 0 0 0.2)
(0.2 0 0 0 0.2 0 0 0 0.2)
(0.2 0 0 0 0.2 0 0 0 0.2)
(0.2 0 0 0 0.2 0 0 0 0.2)
(0.2 0 0 0 0.2 0 0 0 0.2)
(0.2 0 0 0 0.2 0 0 0 0.2)
(0.2 0 0 0 0.2 0 0 0 0.2)
(0.2 0 0 0 0.2 0 0 0 0.2)
(0.2 0 0 0 0.2 0 0 0 0.2)
(0.2 0 0 0 0.2 0 0 0 0.2)
(0.2 0 0 0 0.2 0 0 0 0.2)
(0.2 0 0 0 0.2 0 0 0 0.2)
(0.2 0 0 0 0.2 0 0 0 0.2)
(0.2 0 0 0 0.2 0 0 0 0.2)
(0.2 0 0 0 0.2 0 0 0 0.2)
(0.2 0 0 0 0.2 0 0 0 0.2)
(0.2 0 0 0 0.2 0 0 0 0.2)
(0.2 0 0 0 0.2 0 0 0 0.2)
(0.2 0 0 0 0.2 0 0 0 0.2)
(0.2 0 0 0 0.2 0 0 0 0.2)
(0.2 0 0 0 0.2 0 0 0 0.2)
(0.2 0 0 0 0.2 0 0 0 0.2)
(0.2 0 0 0 0.2 0 0 0 0.2)
(0.2 0 0 0 0.2 0 0 0 0.2)
(0.2 0 0 0 0.2 0 0 0 0.2)
(0.2 0 0 0 0.2 0 0 0 0.2)
(0.2 0 0 0 0.2 0 0 0 0.2)
(0.2 0 0 0 0.2 0 0 0 0.2)
(0.2 0 0 0 0.2 0 0 0 0.2)
(0.2 0 0 0 0.2 0 0 0 0.2)
(0.2 0 0 0 0.2 0 0 0 0.2)
(0.2 0 0 0 0.2 0 0 0 0.2)
(0.2 0 0 0 0.2 0 0 0 0.2)
(0.2 0 0 0 0.2 0 0 0 0.2)
(0.2 0 0 0 0.2 0 0 0 0.2)
(0.2 0 0 0 0.2 0 0 0 0.2)
(0.2 0 0 0 0.2 0 0 0 0.2)
(0.2 0 0 0 0.2 0 0 0 0.2)
(0.2 0 0 0 0.2 0 0 0 0.2)
(0.2 0 0 0 0.2 0 0 0 0.2)
(0.2 0 0 0 0.2 0 0 0 0.2)
(0.2 0 0 0 0.2 0 0 0 0.2)
(0.2 0 0 0 0.2 0 0 0 0.2)
(0.2 0 0 0 0.2 0 0 0 0.2)
(0.2 0 0 0 0.2 0 0 0 0.2)
(0.2 0 0 0 0.2 0 0 0 0.2)
(0.2 0 0 0 0.2 0 0 0 0.2)
(0.2 0 0 0 0.2 0 0 0 0.2)
(0.2 0 0 0 0.2 0 0 0 0.2)
(0.2 0 0 0 0.2 0 0 0 0.2)
(0.2 0 0 0 0.2 0 0 0 0.2)
(0.2 0 0 0 0.2 0 0 0 0.2)
(0.2 0 0 0 0.2 0 0 0 0.2)
(0.2 0 0 0 0.2 0 0 0 0.2)
(0.2 0 0 0 0.2 0 0 0 0.2)
(0.2 0 0 0 0.2 0 0 0 0.2)
(0.2 0 0 0 0.2 0 0 0 0.2)
(0.2 0 0 0 0.2 0 0 0 0.2)
(0.2 0 0 0 0.2 0 0 0 0.2)
(0.2 0 0 0 0.2 0 0 0 0.2)
(0.2 0 0 0 0.2 0 0 0 0.2)
(0.2 0 0 0 0.2 0 0 0 0.2)
(0.2 0 0 0 0.2 0 0 0 0.2)
(0.2 0 0 0 0.2 0 0 0 0.2)
(0.2 0 0 0 0.2 0 0 0 0.2)
(0.2 0 0 0 0.2 0 0 0 0.2)
(0.2 0 0 0 0.2 0 0 0 0.2)
(0.2 0 0 0 0.2 0 0 0 0.2)
(0.2 0 0 0 0.2 0 0 0 0.2)
(0.2 0 0 0 0.2 0 0 0 0.2)
(0.2 0 0 0 0.2 0 0 0 0.2)
(0.2 0 0 0 0.2 0 0 0 0.2)
(0.2 0 0 0 0.2 0 0 0 0.2)
(0.2 0 0 0 0.2 0 0 0 0.2)
(0.2 0 0 0 0.2 0 0 0 0.2)
(0.2 0 0 0 0.2 0 0 0 0.2)
(0.2 0 0 0 0.2 0 0 0 0.2)
(0.2 0 0 0 0.2 0 0 0 0.2)
(0.2 0 0 0 0.2 0 0 0 0.2)
(0.2 0 0 0 0.2 0 0 0 0.2)
(0.2 0 0 0 0.2 0 0 0 0.2)
(0.2 0 0 0 0.2 0 0 0 0.2)
(0.2 0 0 0 0.2 0 0 0 0.2)
(0.2 0 0 0 0.2 0 0 0 0.2)
(0.2 0 0 0 0.2 0 0 0 0.2)
(0.2 0 0 0 0.2 0 0 0 0.2)
(0.2 0 0 0 0.2 0 0 0 0.2)
(0.2 0 0 0 0.2 0 0 0 0.2)
(0.2 0 0 0 0.2 0 0 0 0.2)
(0.2 0 0 0 0.2 0 0 0 0.2)
(0.2 0 0 0 0.2 0 0 0 0.2)
(0.2 0 0 0 0.2 0 0 0 0.2)
(0.2 0 0 0 0.2 0 0 0 0.2)
(0.2 0 0 0 0.2 0 0 0 0.2)
(0.2 0 0 0 0.2 0 0 0 0.2)
(0.2 0 0 0 0.2 0 0 0 0.2)
(0.2 0 0 0 0.2 0 0 0 0.2)
(0.2 0 0 0 0.2 0 0 0 0.2)
(0.2 0 0 0 0.2 0 0 0 0.2)
(0.2 0 0 0 0.2 0 0 0 0.2)
(0.2 0 0 0 0.2 0 0 0 0.2)
(0.2 0 0 0 0.2 0 0 0 0.2)
(0.2 0 0 0 0.2 0 0 0 0.2)
(0.2 0 0 0 0.2 0 0 0 0.2)
(0.2 0 0 0 0.2 0 0 0 0.2)
(0.2 0 0 0 0.2 0 0 0 0.2)
(0.2 0 0 0 0.2 0 0 0 0.2)
(0.2 0 0 0 0.2 0 0 0 0.2)
(0.2 0 0 0 0.2 0 0 0 0.2)
(0.2 0 0 0 0.2 0 0 0 0.2)
(0.2 0 0 0 0.2 0 0 0 0.2)
(0.2 0 0 0 0.2 0 0 0 0.2)
(0.2 0 0 0 0.2 0 0 0 0.2)
(0.2 0 0 0 0.2 0 0 0 0.2)
(0.2 0 0 0 0.2 0 0 0 0.2)
(0.2 0 0 0 0.2 0 0 0 0.2)
(0.2 0 0 0 0.2 0 0 0 0.2)
(0.2 0 0 0 0.2 0 0 0 0.2)
(0.2 0 0 0 0.2 0 0 0 0.2)
(0.2 0 0 0 0.2 0 0 0 0.2)
(0.2 0 0 0 0.2 0 0 0 0.2)
(0.2 0 0 0 0.2 0 0 0 0.2)
(0.2 0 0 0 0.2 0 0 0 0.2)
(0.2 0 0 0 0.2 0 0 0 0.2)
(0.2 0 0 0 0.2 0 0 0 0.2)
(0.2 0 0 0 0.2 0 0 0 0.2)
(0.2 0 0 0 0.2 0 0 0 0.2)
(0.2 0 0 0 0.2 0 0 0 0.2)
(0.2 0 0 0 0.2 0 0 0 0.2)
(0.2 0 0 0 0.2 0 0 0 0.2)
(0.2 0 0 0 0.2 0 0 0 0.2)
(0.2 0 0 0 0.2 0 0 0 0.2)
(0.2 0 0 0 0.2 0 0 0 0.2)
(0.2 0 0 0 0.2 0 0 0 0.2)
(0.2 0 0 0 0.2 0 0 0 0.2)
(0.2 0 0 0 0.2 0 0 0 0.2)
(0.2 0 0 0 0.2 0 0 0 0.2)
(0.2 0 0 0 0.2 0 0 0 0.2)
(0.2 0 0 0 0.2 0 0 0 0.2)
(0.2 0 0 0 0.2 0 0 0 0.2)
(0.2 0 0 0 0.2 0 0 0 0.2)
(0.2 0 0 0 0.2 0 0 0 0.2)
(0.2 0 0 0 0.2 0 0 0 0.2)
(0.2 0 0 0 0.2 0 0 0 0.2)
(0.2 0 0 0 0.2 0 0 0 0.2)
(0.2 0 0 0 0.2 0 0 0 0.2)
(0.2 0 0 0 0.2 0 0 0 0.2)
(0.2 0 0 0 0.2 0 0 0 0.2)
(0.2 0 0 0 0.2 0 0 0 0.2)
(0.2 0 0 0 0.2 0 0 0 0.2)
(0.2 0 0 0 0.2 0 0 0 0.2)
(0.2 0 0 0 0.2 0 0 0 0.2)
(0.2 0 0 0 0.2 0 0 0 0.2)
(0.2 0 0 0 0.2 0 0 0 0.2)
(0.2 0 0 0 0.2 0 0 0 0.2)
(0.2 0 0 0 0.2 0 0 0 0.2)
(0.2 0 0 0 0.2 0 0 0 0.2)
(0.2 0 0 0 0.2 0 0 0 0.2)
(0.2 0 0 0 0.2 0 0 0 0.2)
(0.2 0 0 0 0.2 0 0 0 0.2)
(0.2 0 0 0 0.2 0 0 0 0.2)
(0.2 0 0 0 0.2 0 0 0 0.2)
(0.2 0 0 0 0.2 0 0 0 0.2)
(0.2 0 0 0 0.2 0 0 0 0.2)
(0.2 0 0 0 0.2 0 0 0 0.2)
(0.2 0 0 0 0.2 0 0 0 0.2)
(0.2 0 0 0 0.2 0 0 0 0.2)
(0.2 0 0 0 0.2 0 0 0 0.2)
(0.2 0 0 0 0.2 0 0 0 0.2)
(0.2 0 0 0 0.2 0 0 0 0.2)
(0.2 0 0 0 0.2 0 0 0 0.2)
(0.2 0 0 0 0.2 0 0 0 0.2)
(0.2 0 0 0 0.2 0 0 0 0.2)
(0.2 0 0 0 0.2 0 0 0 0.2)
(0.2 0 0 0 0.2 0 0 0 0.2)
(0.2 0 0 0 0.2 0 0 0 0.2)
(0.2 0 0 0 0.2 0 0 0 0.2)
(0.2 0 0 0 0.2 0 0 0 0.2)
(0.2 0 0 0 0.2 0 0 0 0.2)
(0.2 0 0 0 0.2 0 0 0 0.2)
(0.2 0 0 0 0.2 0 0 0 0.2)
(0.2 0 0 0 0.2 0 0 0 0.2)
(0.2 0 0 0 0.2 0 0 0 0.2)
(0.2 0 0 0 0.2 0 0 0 0.2)
(0.2 0 0 0 0.2 0 0 0 0.2)
(0.2 0 0 0 0.2 0 0 0 0.2)
(0.2 0 0 0 0.2 0 0 0 0.2)
(0.2 0 0 0 0.2 0 0 0 0.2)
(0.2 0 0 0 0.2 0 0 0 0.2)
(0.2 0 0 0 0.2 0 0 0 0.2)
(0.2 0 0 0 0.2 0 0 0 0.2)
(0.2 0 0 0 0.2 0 0 0 0.2)
(0.2 0 0 0 0.2 0 0 0 0.2)
(0.2 0 0 0 0.2 0 0 0 0.2)
(0.2 0 0 0 0.2 0 0 0 0.2)
(0.2 0 0 0 0.2 0 0 0 0.2)
(0.2 0 0 0 0.2 0 0 0 0.2)
(0.2 0 0 0 0.2 0 0 0 0.2)
(0.2 0 0 0 0.2 0 0 0 0.2)
(0.2 0 0 0 0.2 0 0 0 0.2)
(0.2 0 0 0 0.2 0 0 0 0.2)
(0.2 0 0 0 0.2 0 0 0 0.2)
(0.2 0 0 0 0.2 0 0 0 0.2)
(0.2 0 0 0 0.2 0 0 0 0.2)
(0.2 0 0 0 0.2 0 0 0 0.2)
(0.2 0 0 0 0.2 0 0 0 0.2)
(0.2 0 0 0 0.2 0 0 0 0.2)
(0.2 0 0 0 0.2 0 0 0 0.2)
(0.2 0 0 0 0.2 0 0 0 0.2)
(0.2 0 0 0 0.2 0 0 0 0.2)
(0.2 0 0 0 0.2 0 0 0 0.2)
(0.2 0 0 0 0.2 0 0 0 0.2)
(0.2 0 0 0 0.2 0 0 0 0.2)
(0.2 0 0 0 0.2 0 0 0 0.2)
(0.2 0 0 0 0.2 0 0 0 0.2)
(0.2 0 0 0 0.2 0 0 0 0.2)
(0.2 0 0 0 0.2 0 0 0 0.2)
(0.2 0 0 0 0.2 0 0 0 0.2)
(0.2 0 0 0 0.2 0 0 0 0.2)
(0.2 0 0 0 0.2 0 0 0 0.2)
(0.2 0 0 0 0.2 0 0 0 0.2)
(0.2 0 0 0 0.2 0 0 0 0.2)
(0.2 0 0 0 0.2 0 0 0 0.2)
(0.2 0 0 0 0.2 0 0 0 0.2)
(0.2 0 0 0 0.2 0 0 0 0.2)
(0.2 0 0 0 0.2 0 0 0 0.2)
(0.2 0 0 0 0.2 0 0 0 0.2)
(0.2 0 0 0 0.2 0 0 0 0.2)
(0.2 0 0 0 0.2 0 0 0 0.2)
(0.2 0 0 0 0.2 0 0 0 0.2)
(0.2 0 0 0 0.2 0 0 0 0.2)
(0.2 0 0 0 0.2 0 0 0 0.2)
(0.2 0 0 0 0.2 0 0 0 0.2)
(0.2 0 0 0 0.2 0 0 0 0.2)
(0.2 0 0 0 0.2 0 0 0 0.2)
(0.2 0 0 0 0.2 0 0 0 0.2)
(0.2 0 0 0 0.2 0 0 0 0.2)
(0.2 0 0 0 0.2 0 0 0 0.2)
(0.2 0 0 0 0.2 0 0 0 0.2)
(0.2 0 0 0 0.2 0 0 0 0.2)
(0.2 0 0 0 0.2 0 0 0 0.2)
(0.2 0 0 0 0.2 0 0 0 0.2)
(0.2 0 0 0 0.2 0 0 0 0.2)
(0.2 0 0 0 0.2 0 0 0 0.2)
(0.2 0 0 0 0.2 0 0 0 0.2)
(0.2 0 0 0 0.2 0 0 0 0.2)
(0.2 0 0 0 0.2 0 0 0 0.2)
(0.2 0 0 0 0.2 0 0 0 0.2)
(0.2 0 0 0 0.2 0 0 0 0.2)
(0.2 0 0 0 0.2 0 0 0 0.2)
(0.2 0 0 0 0.2 0 0 0 0.2)
(0.2 0 0 0 0.2 0 0 0 0.2)
(0.2 0 0 0 0.2 0 0 0 0.2)
(0.2 0 0 0 0.2 0 0 0 0.2)
(0.2 0 0 0 0.2 0 0 0 0.2)
(0.2 0 0 0 0.2 0 0 0 0.2)
(0.2 0 0 0 0.2 0 0 0 0.2)
(0.2 0 0 0 0.2 0 0 0 0.2)
(0.2 0 0 0 0.2 0 0 0 0.2)
(0.2 0 0 0 0.2 0 0 0 0.2)
(0.2 0 0 0 0.2 0 0 0 0.2)
(0.2 0 0 0 0.2 0 0 0 0.2)
(0.2 0 0 0 0.2 0 0 0 0.2)
(0.2 0 0 0 0.2 0 0 0 0.2)
(0.2 0 0 0 0.2 0 0 0 0.2)
(0.2 0 0 0 0.2 0 0 0 0.2)
(0.2 0 0 0 0.2 0 0 0 0.2)
(0.2 0 0 0 0.2 0 0 0 0.2)
(0.2 0 0 0 0.2 0 0 0 0.2)
(0.2 0 0 0 0.2 0 0 0 0.2)
(0.2 0 0 0 0.2 0 0 0 0.2)
(0.2 0 0 0 0.2 0 0 0 0.2)
(0.2 0 0 0 0.2 0 0 0 0.2)
(0.2 0 0 0 0.2 0 0 0 0.2)
(0.2 0 0 0 0.2 0 0 0 0.2)
(0.2 0 0 0 0.2 0 0 0 0.2)
(0.2 0 0 0 0.2 0 0 0 0.2)
(0.2 0 0 0 0.2 0 0 0 0.2)
(0.2 0 0 0 0.2 0 0 0 0.2)
(0.2 0 0 0 0.2 0 0 0 0.2)
(0.2 0 0 0 0.2 0 0 0 0.2)
(0.2 0 0 0 0.2 0 0 0 0.2)
(0.2 0 0 0 0.2 0 0 0 0.2)
(0.2 0 0 0 0.2 0 0 0 0.2)
(0.2 0 0 0 0.2 0 0 0 0.2)
(0.2 0 0 0 0.2 0 0 0 0.2)
(0.2 0 0 0 0.2 0 0 0 0.2)
(0.2 0 0 0 0.2 0 0 0 0.2)
(0.2 0 0 0 0.2 0 0 0 0.2)
(0.2 0 0 0 0.2 0 0 0 0.2)
(0.2 0 0 0 0.2 0 0 0 0.2)
(0.2 0 0 0 0.2 0 0 0 0.2)
(0.2 0 0 0 0.2 0 0 0 0.2)
(0.2 0 0 0 0.2 0 0 0 0.2)
(0.2 0 0 0 0.2 0 0 0 0.2)
(0.2 0 0 0 0.2 0 0 0 0.2)
(0.2 0 0 0 0.2 0 0 0 0.2)
(0.2 0 0 0 0.2 0 0 0 0.2)
(0.2 0 0 0 0.2 0 0 0 0.2)
(0.2 0 0 0 0.2 0 0 0 0.2)
(0.2 0 0 0 0.2 0 0 0 0.2)
(0.2 0 0 0 0.2 0 0 0 0.2)
(0.2 0 0 0 0.2 0 0 0 0.2)
(0.2 0 0 0 0.2 0 0 0 0.2)
(0.2 0 0 0 0.2 0 0 0 0.2)
(0.2 0 0 0 0.2 0 0 0 0.2)
(0.2 0 0 0 0.2 0 0 0 0.2)
(0.2 0 0 0 0.2 0 0 0 0.2)
(0.2 0 0 0 0.2 0 0 0 0.2)
(0.2 0 0 0 0.2 0 0 0 0.2)
(0.2 0 0 0 0.2 0 0 0 0.2)
(0.2 0 0 0 0.2 0 0 0 0.2)
(0.2 0 0 0 0.2 0 0 0 0.2)
(0.2 0 0 0 0.2 0 0 0 0.2)
(0.2 0 0 0 0.2 0 0 0 0.2)
(0.2 0 0 0 0.2 0 0 0 0.2)
(0.2 0 0 0 0.2 0 0 0 0.2)
(0.2 0 0 0 0.2 0 0 0 0.2)
(0.2 0 0 0 0.2 0 0 0 0.2)
(0.2 0 0 0 0.2 0 0 0 0.2)
(0.2 0 0 0 0.2 0 0 0 0.2)
(0.2 0 0 0 0.2 0 0 0 0.2)
(0.2 0 0 0 0.2 0 0 0 0.2)
(0.2 0 0 0 0.2 0 0 0 0.2)
(0.2 0 0 0 0.2 0 0 0 0.2)
(0.2 0 0 0 0.2 0 0 0 0.2)
(0.2 0 0 0 0.2 0 0 0 0.2)
(0.2 0 0 0 0.2 0 0 0 0.2)
(0.2 0 0 0 0.2 0 0 0 0.2)
(0.2 0 0 0 0.2 0 0 0 0.2)
(0.2 0 0 0 0.2 0 0 0 0.2)
(0.2 0 0 0 0.2 0 0 0 0.2)
(0.2 0 0 0 0.2 0 0 0 0.2)
(0.2 0 0 0 0.2 0 0 0 0.2)
(0.2 0 0 0 0.2 0 0 0 0.2)
(0.2 0 0 0 0.2 0 0 0 0.2)
(0.2 0 0 0 0.2 0 0 0 0.2)
(0.2 0 0 0 0.2 0 0 0 0.2)
(0.2 0 0 0 0.2 0 0 0 0.2)
(0.2 0 0 0 0.2 0 0 0 0.2)
(0.2 0 0 0 0.2 0 0 0 0.2)
(0.2 0 0 0 0.2 0 0 0 0.2)
(0.2 0 0 0 0.2 0 0 0 0.2)
(0.2 0 0 0 0.2 0 0 0 0.2)
(0.2 0 0 0 0.2 0 0 0 0.2)
(0.2 0 0 0 0.2 0 0 0 0.2)
(0.2 0 0 0 0.2 0 0 0 0.2)
(0.2 0 0 0 0.2 0 0 0 0.2)
(0.2 0 0 0 0.2 0 0 0 0.2)
(0.2 0 0 0 0.2 0 0 0 0.2)
(0.2 0 0 0 0.2 0 0 0 0.2)
(0.2 0 0 0 0.2 0 0 0 0.2)
(0.2 0 0 0 0.2 0 0 0 0.2)
(0.2 0 0 0 0.2 0 0 0 0.2)
(0.2 0 0 0 0.2 0 0 0 0.2)
(0.2 0 0 0 0.2 0 0 0 0.2)
(0.2 0 0 0 0.2 0 0 0 0.2)
(0.2 0 0 0 0.2 0 0 0 0.2)
(0.2 0 0 0 0.2 0 0 0 0.2)
(0.2 0 0 0 0.2 0 0 0 0.2)
(0.2 0 0 0 0.2 0 0 0 0.2)
(0.2 0 0 0 0.2 0 0 0 0.2)
(0.2 0 0 0 0.2 0 0 0 0.2)
(0.2 0 0 0 0.2 0 0 0 0.2)
(0.2 0 0 0 0.2 0 0 0 0.2)
(0.2 0 0 0 0.2 0 0 0 0.2)
(0.2 0 0 0 0.2 0 0 0 0.2)
(0.2 0 0 0 0.2 0 0 0 0.2)
(0.2 0 0 0 0.2 0 0 0 0.2)
(0.2 0 0 0 0.2 0 0 0 0.2)
(0.2 0 0 0 0.2 0 0 0 0.2)
(0.2 0 0 0 0.2 0 0 0 0.2)
(0.2 0 0 0 0.2 0 0 0 0.2)
(0.2 0 0 0 0.2 0 0 0 0.2)
(0.2 0 0 0 0.2 0 0 0 0.2)
(0.2 0 0 0 0.2 0 0 0 0.2)
(0.2 0 0 0 0.2 0 0 0 0.2)
(0.2 0 0 0 0.2 0 0 0 0.2)
(0.2 0 0 0 0.2 0 0 0 0.2)
(0.2 0 0 0 0.2 0 0 0 0.2)
(0.2 0 0 0 0.2 0 0 0 0.2)
(0.2 0 0 0 0.2 0 0 0 0.2)
(0.2 0 0 0 0.2 0 0 0 0.2)
(0.2 0 0 0 0.2 0 0 0 0.2)
(0.2 0 0 0 0.2 0 0 0 0.2)
(0.2 0 0 0 0.2 0 0 0 0.2)
(0.2 0 0 0 0.2 0 0 0 0.2)
(0.2 0 0 0 0.2 0 0 0 0.2)
(0.2 0 0 0 0.2 0 0 0 0.2)
(0.2 0 0 0 0.2 0 0 0 0.2)
(0.2 0 0 0 0.2 0 0 0 0.2)
(0.2 0 0 0 0.2 0 0 0 0.2)
(0.2 0 0 0 0.2 0 0 0 0.2)
(0.2 0 0 0 0.2 0 0 0 0.2)
(0.2 0 0 0 0.2 0 0 0 0.2)
(0.2 0 0 0 0.2 0 0 0 0.2)
(0.2 0 0 0 0.2 0 0 0 0.2)
(0.2 0 0 0 0.2 0 0 0 0.2)
(0.2 0 0 0 0.2 0 0 0 0.2)
(0.2 0 0 0 0.2 0 0 0 0.2)
(0.2 0 0 0 0.2 0 0 0 0.2)
(0.2 0 0 0 0.2 0 0 0 0.2)
(0.2 0 0 0 0.2 0 0 0 0.2)
(0.2 0 0 0 0.2 0 0 0 0.2)
(0.2 0 0 0 0.2 0 0 0 0.2)
(0.2 0 0 0 0.2 0 0 0 0.2)
(0.2 0 0 0 0.2 0 0 0 0.2)
(0.2 0 0 0 0.2 0 0 0 0.2)
(0.2 0 0 0 0.2 0 0 0 0.2)
(0.2 0 0 0 0.2 0 0 0 0.2)
(0.2 0 0 0 0.2 0 0 0 0.2)
(0.2 0 0 0 0.2 0 0 0 0.2)
(0.2 0 0 0 0.2 0 0 0 0.2)
(0.2 0 0 0 0.2 0 0 0 0.2)
(0.2 0 0 0 0.2 0 0 0 0.2)
(0.2 0 0 0 0.2 0 0 0 0.2)
(0.2 0 0 0 0.2 0 0 0 0.2)
(0.2 0 0 0 0.2 0 0 0 0.2)
(0.2 0 0 0 0.2 0 0 0 0.2)
(0.2 0 0 0 0.2 0 0 0 0.2)
(0.2 0 0 0 0.2 0 0 0 0.2)
(0.2 0 0 0 0.2 0 0 0 0.2)
(0.2 0 0 0 0.2 0 0 0 0.2)
(0.2 0 0 0 0.2 0 0 0 0.2)
(0.2 0 0 0 0.2 0 0 0 0.2)
(0.2 0 0 0 0.2 0 0 0 0.2)
(0.2 0 0 0 0.2 0 0 0 0.2)
(0.2 0 0 0 0.2 0 0 0 0.2)
(0.2 0 0 0 0.2 0 0 0 0.2)
(0.2 0 0 0 0.2 0 0 0 0.2)
(0.2 0 0 0 0.2 0 0 0 0.2)
(0.2 0 0 0 0.2 0 0 0 0.2)
(0.2 0 0 0 0.2 0 0 0 0.2)
(0.2 0 0 0 0.2 0 0 0 0.2)
(0.2 0 0 0 0.2 0 0 0 0.2)
(0.2 0 0 0 0.2 0 0 0 0.2)
(0.2 0 0 0 0.2 0 0 0 0.2)
(0.2 0 0 0 0.2 0 0 0 0.2)
(0.2 0 0 0 0.2 0 0 0 0.2)
(0.2 0 0 0 0.2 0 0 0 0.2)
(0.2 0 0 0 0.2 0 0 0 0.2)
(0.2 0 0 0 0.2 0 0 0 0.2)
(0.2 0 0 0 0.2 0 0 0 0.2)
(0.2 0 0 0 0.2 0 0 0 0.2)
(0.2 0 0 0 0.2 0 0 0 0.2)
(0.2 0 0 0 0.2 0 0 0 0.2)
(0.2 0 0 0 0.2 0 0 0 0.2)
(0.2 0 0 0 0.2 0 0 0 0.2)
(0.2 0 0 0 0.2 0 0 0 0.2)
(0.2 0 0 0 0.2 0 0 0 0.2)
(0.2 0 0 0 0.2 0 0 0 0.2)
(0.2 0 0 0 0.2 0 0 0 0.2)
(0.2 0 0 0 0.2 0 0 0 0.2)
(0.2 0 0 0 0.2 0 0 0 0.2)
(0.2 0 0 0 0.2 0 0 0 0.2)
(0.2 0 0 0 0.2 0 0 0 0.2)
(0.2 0 0 0 0.2 0 0 0 0.2)
(0.2 0 0 0 0.2 0 0 0 0.2)
(0.2 0 0 0 0.2 0 0 0 0.2)
(0.2 0 0 0 0.2 0 0 0 0.2)
(0.2 0 0 0 0.2 0 0 0 0.2)
(0.2 0 0 0 0.2 0 0 0 0.2)
(0.2 0 0 0 0.2 0 0 0 0.2)
(0.2 0 0 0 0.2 0 0 0 0.2)
(0.2 0 0 0 0.2 0 0 0 0.2)
(0.2 0 0 0 0.2 0 0 0 0.2)
(0.2 0 0 0 0.2 0 0 0 0.2)
(0.2 0 0 0 0.2 0 0 0 0.2)
(0.2 0 0 0 0.2 0 0 0 0.2)
(0.2 0 0 0 0.2 0 0 0 0.2)
(0.2 0 0 0 0.2 0 0 0 0.2)
(0.2 0 0 0 0.2 0 0 0 0.2)
(0.2 0 0 0 0.2 0 0 0 0.2)
(0.2 0 0 0 0.2 0 0 0 0.2)
(0.2 0 0 0 0.2 0 0 0 0.2)
(0.2 0 0 0 0.2 0 0 0 0.2)
(0.2 0 0 0 0.2 0 0 0 0.2)
(0.2 0 0 0 0.2 0 0 0 0.2)
(0.2 0 0 0 0.2 0 0 0 0.2)
(0.2 0 0 0 0.2 0 0 0 0.2)
(0.2 0 0 0 0.2 0 0 0 0.2)
(0.2 0 0 0 0.2 0 0 0 0.2)
(0.2 0 0 0 0.2 0 0 0 0.2)
(0.2 0 0 0 0.2 0 0 0 0.2)
(0.2 0 0 0 0.2 0 0 0 0.2)
(0.2 0 0 0 0.2 0 0 0 0.2)
(0.2 0 0 0 0.2 0 0 0 0.2)
(0.2 0 0 0 0.2 0 0 0 0.2)
(0.2 0 0 0 0.2 0 0 0 0.2)
(0.2 0 0 0 0.2 0 0 0 0.2)
(0.2 0 0 0 0.2 0 0 0 0.2)
(0.2 0 0 0 0.2 0 0 0 0.2)
(0.2 0 0 0 0.2 0 0 0 0.2)
(0.2 0 0 0 0.2 0 0 0 0.2)
(0.2 0 0 0 0.2 0 0 0 0.2)
(0.2 0 0 0 0.2 0 0 0 0.2)
(0.2 0 0 0 0.2 0 0 0 0.2)
(0.2 0 0 0 0.2 0 0 0 0.2)
(0.2 0 0 0 0.2 0 0 0 0.2)
(0.2 0 0 0 0.2 0 0 0 0.2)
(0.2 0 0 0 0.2 0 0 0 0.2)
(0.2 0 0 0 0.2 0 0 0 0.2)
(0.2 0 0 0 0.2 0 0 0 0.2)
(0.2 0 0 0 0.2 0 0 0 0.2)
(0.2 0 0 0 0.2 0 0 0 0.2)
(0.2 0 0 0 0.2 0 0 0 0.2)
(0.2 0 0 0 0.2 0 0 0 0.2)
(0.2 0 0 0 0.2 0 0 0 0.2)
(0.2 0 0 0 0.2 0 0 0 0.2)
(0.2 0 0 0 0.2 0 0 0 0.2)
(0.2 0 0 0 0.2 0 0 0 0.2)
(0.2 0 0 0 0.2 0 0 0 0.2)
(0.2 0 0 0 0.2 0 0 0 0.2)
(0.2 0 0 0 0.2 0 0 0 0.2)
(0.2 0 0 0 0.2 0 0 0 0.2)
(0.2 0 0 0 0.2 0 0 0 0.2)
(0.2 0 0 0 0.2 0 0 0 0.2)
(0.2 0 0 0 0.2 0 0 0 0.2)
(0.2 0 0 0 0.2 0 0 0 0.2)
(0.2 0 0 0 0.2 0 0 0 0.2)
(0.2 0 0 0 0.2 0 0 0 0.2)
(0.2 0 0 0 0.2 0 0 0 0.2)
(0.2 0 0 0 0.2 0 0 0 0.2)
(0.2 0 0 0 0.2 0 0 0 0.2)
(0.2 0 0 0 0.2 0 0 0 0.2)
(0.2 0 0 0 0.2 0 0 0 0.2)
(0.2 0 0 0 0.2 0 0 0 0.2)
(0.2 0 0 0 0.2 0 0 0 0.2)
(0.2 0 0 0 0.2 0 0 0 0.2)
(0.2 0 0 0 0.2 0 0 0 0.2)
(0.2 0 0 0 0.2 0 0 0 0.2)
(0.2 0 0 0 0.2 0 0 0 0.2)
(0.2 0 0 0 0.2 0 0 0 0.2)
(0.2 0 0 0 0.2 0 0 0 0.2)
(0.2 0 0 0 0.2 0 0 0 0.2)
(0.2 0 0 0 0.2 0 0 0 0.2)
(0.2 0 0 0 0.2 0 0 0 0.2)
(0.2 0 0 0 0.2 0 0 0 0.2)
(0.2 0 0 0 0.2 0 0 0 0.2)
(0.2 0 0 0 0.2 0 0 0 0.2)
(0.2 0 0 0 0.2 0 0 0 0.2)
(0.2 0 0 0 0.2 0 0 0 0.2)
(0.2 0 0 0 0.2 0 0 0 0.2)
(0.2 0 0 0 0.2 0 0 0 0.2)
(0.2 0 0 0 0.2 0 0 0 0.2)
(0.2 0 0 0 0.2 0 0 0 0.2)
(0.2 0 0 0 0.2 0 0 0 0.2)
(0.2 0 0 0 0.2 0 0 0 0.2)
(0.2 0 0 0 0.2 0 0 0 0.2)
(0.2 0 0 0 0.2 0 0 0 0.2)
(0.2 0 0 0 0.2 0 0 0 0.2)
(0.2 0 0 0 0.2 0 0 0 0.2)
(0.2 0 0 0 0.2 0 0 0 0.2)
(0.2 0 0 0 0.2 0 0 0 0.2)
(0.2 0 0 0 0.2 0 0 0 0.2)
(0.2 0 0 0 0.2 0 0 0 0.2)
(0.2 0 0 0 0.2 0 0 0 0.2)
(0.2 0 0 0 0.2 0 0 0 0.2)
(0.2 0 0 0 0.2 0 0 0 0.2)
(0.2 0 0 0 0.2 0 0 0 0.2)
(0.2 0 0 0 0.2 0 0 0 0.2)
(0.2 0 0 0 0.2 0 0 0 0.2)
(0.2 0 0 0 0.2 0 0 0 0.2)
(0.2 0 0 0 0.2 0 0 0 0.2)
(0.2 0 0 0 0.2 0 0 0 0.2)
(0.2 0 0 0 0.2 0 0 0 0.2)
(0.2 0 0 0 0.2 0 0 0 0.2)
(0.2 0 0 0 0.2 0 0 0 0.2)
(0.2 0 0 0 0.2 0 0 0 0.2)
(0.2 0 0 0 0.2 0 0 0 0.2)
(0.2 0 0 0 0.2 0 0 0 0.2)
(0.2 0 0 0 0.2 0 0 0 0.2)
(0.2 0 0 0 0.2 0 0 0 0.2)
(0.2 0 0 0 0.2 0 0 0 0.2)
(0.2 0 0 0 0.2 0 0 0 0.2)
(0.2 0 0 0 0.2 0 0 0 0.2)
(0.2 0 0 0 0.2 0 0 0 0.2)
(0.2 0 0 0 0.2 0 0 0 0.2)
(0.2 0 0 0 0.2 0 0 0 0.2)
(0.2 0 0 0 0.2 0 0 0 0.2)
(0.2 0 0 0 0.2 0 0 0 0.2)
(0.2 0 0 0 0.2 0 0 0 0.2)
(0.2 0 0 0 0.2 0 0 0 0.2)
(0.2 0 0 0 0.2 0 0 0 0.2)
(0.2 0 0 0 0.2 0 0 0 0.2)
(0.2 0 0 0 0.2 0 0 0 0.2)
(0.2 0 0 0 0.2 0 0 0 0.2)
(0.2 0 0 0 0.2 0 0 0 0.2)
(0.2 0 0 0 0.2 0 0 0 0.2)
(0.2 0 0 0 0.2 0 0 0 0.2)
(0.2 0 0 0 0.2 0 0 0 0.2)
(0.2 0 0 0 0.2 0 0 0 0.2)
(0.2 0 0 0 0.2 0 0 0 0.2)
(0.2 0 0 0 0.2 0 0 0 0.2)
(0.2 0 0 0 0.2 0 0 0 0.2)
(0.2 0 0 0 0.2 0 0 0 0.2)
(0.2 0 0 0 0.2 0 0 0 0.2)
(0.2 0 0 0 0.2 0 0 0 0.2)
(0.2 0 0 0 0.2 0 0 0 0.2)
(0.2 0 0 0 0.2 0 0 0 0.2)
(0.2 0 0 0 0.2 0 0 0 0.2)
(0.2 0 0 0 0.2 0 0 0 0.2)
(0.2 0 0 0 0.2 0 0 0 0.2)
(0.2 0 0 0 0.2 0 0 0 0.2)
(0.2 0 0 0 0.2 0 0 0 0.2)
(0.2 0 0 0 0.2 0 0 0 0.2)
(0.2 0 0 0 0.2 0 0 0 0.2)
(0.2 0 0 0 0.2 0 0 0 0.2)
(0.2 0 0 0 0.2 0 0 0 0.2)
(0.2 0 0 0 0.2 0 0 0 0.2)
(0.2 0 0 0 0.2 0 0 0 0.2)
(0.2 0 0 0 0.2 0 0 0 0.2)
(0.2 0 0 0 0.2 0 0 0 0.2)
(0.2 0 0 0 0.2 0 0 0 0.2)
(0.2 0 0 0 0.2 0 0 0 0.2)
(0.2 0 0 0 0.2 0 0 0 0.2)
(0.2 0 0 0 0.2 0 0 0 0.2)
(0.2 0 0 0 0.2 0 0 0 0.2)
(0.2 0 0 0 0.2 0 0 0 0.2)
(0.2 0 0 0 0.2 0 0 0 0.2)
(0.2 0 0 0 0.2 0 0 0 0.2)
(0.2 0 0 0 0.2 0 0 0 0.2)
(0.2 0 0 0 0.2 0 0 0 0.2)
(0.2 0 0 0 0.2 0 0 0 0.2)
(0.2 0 0 0 0.2 0 0 0 0.2)
(0.2 0 0 0 0.2 0 0 0 0.2)
(0.2 0 0 0 0.2 0 0 0 0.2)
(0.2 0 0 0 0.2 0 0 0 0.2)
(0.2 0 0 0 0.2 0 0 0 0.2)
(0.2 0 0 0 0.2 0 0 0 0.2)
(0.2 0 0 0 0.2 0 0 0 0.2)
(0.2 0 0 0 0.2 0 0 0 0.2)
(0.2 0 0 0 0.2 0 0 0 0.2)
(0.2 0 0 0 0.2 0 0 0 0.2)
(0.2 0 0 0 0.2 0 0 0 0.2)
(0.2 0 0 0 0.2 0 0 0 0.2)
(0.2 0 0 0 0.2 0 0 0 0.2)
(0.2 0 0 0 0.2 0 0 0 0.2)
(0.2 0 0 0 0.2 0 0 0 0.2)
(0.2 0 0 0 0.2 0 0 0 0.2)
(0.2 0 0 0 0.2 0 0 0 0.2)
(0.2 0 0 0 0.2 0 0 0 0.2)
(0.2 0 0 0 0.2 0 0 0 0.2)
(0.2 0 0 0 0.2 0 0 0 0.2)
(0.2 0 0 0 0.2 0 0 0 0.2)
(0.2 0 0 0 0.2 0 0 0 0.2)
(0.2 0 0 0 0.2 0 0 0 0.2)
(0.2 0 0 0 0.2 0 0 0 0.2)
(0.2 0 0 0 0.2 0 0 0 0.2)
(0.2 0 0 0 0.2 0 0 0 0.2)
(0.2 0 0 0 0.2 0 0 0 0.2)
(0.2 0 0 0 0.2 0 0 0 0.2)
(0.2 0 0 0 0.2 0 0 0 0.2)
(0.2 0 0 0 0.2 0 0 0 0.2)
(0.2 0 0 0 0.2 0 0 0 0.2)
(0.2 0 0 0 0.2 0 0 0 0.2)
(0.2 0 0 0 0.2 0 0 0 0.2)
(0.2 0 0 0 0.2 0 0 0 0.2)
(0.2 0 0 0 0.2 0 0 0 0.2)
(0.2 0 0 0 0.2 0 0 0 0.2)
(0.2 0 0 0 0.2 0 0 0 0.2)
(0.2 0 0 0 0.2 0 0 0 0.2)
(0.2 0 0 0 0.2 0 0 0 0.2)
(0.2 0 0 0 0.2 0 0 0 0.2)
(0.2 0 0 0 0.2 0 0 0 0.2)
(0.2 0 0 0 0.2 0 0 0 0.2)
(0.2 0 0 0 0.2 0 0 0 0.2)
(0.2 0 0 0 0.2 0 0 0 0.2)
(0.2 0 0 0 0.2 0 0 0 0.2)
(0.2 0 0 0 0.2 0 0 0 0.2)
(0.2 0 0 0 0.2 0 0 0 0.2)
(0.2 0 0 0 0.2 0 0 0 0.2)
(0.2 0 0 0 0.2 0 0 0 0.2)
(0.2 0 0 0 0.2 0 0 0 0.2)
(0.2 0 0 0 0.2 0 0 0 0.2)
(0.2 0 0 0 0.2 0 0 0 0.2)
(0.2 0 0 0 0.2 0 0 0 0.2)
(0.2 0 0 0 0.2 0 0 0 0.2)
(0.2 0 0 0 0.2 0 0 0 0.2)
(0.2 0 0 0 0.2 0 0 0 0.2)
(0.2 0 0 0 0.2 0 0 0 0.2)
(0.2 0 0 0 0.2 0 0 0 0.2)
(0.2 0 0 0 0.2 0 0 0 0.2)
(0.2 0 0 0 0.2 0 0 0 0.2)
(0.2 0 0 0 0.2 0 0 0 0.2)
(0.2 0 0 0 0.2 0 0 0 0.2)
(0.2 0 0 0 0.2 0 0 0 0.2)
(0.2 0 0 0 0.2 0 0 0 0.2)
(0.2 0 0 0 0.2 0 0 0 0.2)
(0.2 0 0 0 0.2 0 0 0 0.2)
(0.2 0 0 0 0.2 0 0 0 0.2)
(0.2 0 0 0 0.2 0 0 0 0.2)
(0.2 0 0 0 0.2 0 0 0 0.2)
(0.2 0 0 0 0.2 0 0 0 0.2)
(0.2 0 0 0 0.2 0 0 0 0.2)
(0.2 0 0 0 0.2 0 0 0 0.2)
(0.2 0 0 0 0.2 0 0 0 0.2)
(0.2 0 0 0 0.2 0 0 0 0.2)
(0.2 0 0 0 0.2 0 0 0 0.2)
(0.2 0 0 0 0.2 0 0 0 0.2)
(0.2 0 0 0 0.2 0 0 0 0.2)
(0.2 0 0 0 0.2 0 0 0 0.2)
(0.2 0 0 0 0.2 0 0 0 0.2)
(0.2 0 0 0 0.2 0 0 0 0.2)
(0.2 0 0 0 0.2 0 0 0 0.2)
(0.2 0 0 0 0.2 0 0 0 0.2)
(0.2 0 0 0 0.2 0 0 0 0.2)
(0.2 0 0 0 0.2 0 0 0 0.2)
(0.2 0 0 0 0.2 0 0 0 0.2)
(0.2 0 0 0 0.2 0 0 0 0.2)
(0.2 0 0 0 0.2 0 0 0 0.2)
(0.2 0 0 0 0.2 0 0 0 0.2)
(0.2 0 0 0 0.2 0 0 0 0.2)
(0.2 0 0 0 0.2 0 0 0 0.2)
(0.2 0 0 0 0.2 0 0 0 0.2)
(0.2 0 0 0 0.2 0 0 0 0.2)
(0.2 0 0 0 0.2 0 0 0 0.2)
(0.2 0 0 0 0.2 0 0 0 0.2)
(0.2 0 0 0 0.2 0 0 0 0.2)
(0.2 0 0 0 0.2 0 0 0 0.2)
(0.2 0 0 0 0.2 0 0 0 0.2)
(0.2 0 0 0 0.2 0 0 0 0.2)
(0.2 0 0 0 0.2 0 0 0 0.2)
(0.2 0 0 0 0.2 0 0 0 0.2)
(0.2 0 0 0 0.2 0 0 0 0.2)
(0.2 0 0 0 0.2 0 0 0 0.2)
(0.2 0 0 0 0.2 0 0 0 0.2)
(0.2 0 0 0 0.2 0 0 0 0.2)
(0.2 0 0 0 0.2 0 0 0 0.2)
(0.2 0 0 0 0.2 0 0 0 0.2)
(0.2 0 0 0 0.2 0 0 0 0.2)
(0.2 0 0 0 0.2 0 0 0 0.2)
(0.2 0 0 0 0.2 0 0 0 0.2)
(0.2 0 0 0 0.2 0 0 0 0.2)
(0.2 0 0 0 0.2 0 0 0 0.2)
(0.2 0 0 0 0.2 0 0 0 0.2)
(0.2 0 0 0 0.2 0 0 0 0.2)
(0.2 0 0 0 0.2 0 0 0 0.2)
(0.2 0 0 0 0.2 0 0 0 0.2)
(0.2 0 0 0 0.2 0 0 0 0.2)
(0.2 0 0 0 0.2 0 0 0 0.2)
(0.2 0 0 0 0.2 0 0 0 0.2)
(0.2 0 0 0 0.2 0 0 0 0.2)
(0.2 0 0 0 0.2 0 0 0 0.2)
(0.2 0 0 0 0.2 0 0 0 0.2)
(0.2 0 0 0 0.2 0 0 0 0.2)
(0.2 0 0 0 0.2 0 0 0 0.2)
(0.2 0 0 0 0.2 0 0 0 0.2)
(0.2 0 0 0 0.2 0 0 0 0.2)
(0.2 0 0 0 0.2 0 0 0 0.2)
(0.2 0 0 0 0.2 0 0 0 0.2)
(0.2 0 0 0 0.2 0 0 0 0.2)
(0.2 0 0 0 0.2 0 0 0 0.2)
(0.2 0 0 0 0.2 0 0 0 0.2)
(0.2 0 0 0 0.2 0 0 0 0.2)
(0.2 0 0 0 0.2 0 0 0 0.2)
(0.2 0 0 0 0.2 0 0 0 0.2)
(0.2 0 0 0 0.2 0 0 0 0.2)
(0.2 0 0 0 0.2 0 0 0 0.2)
(0.2 0 0 0 0.2 0 0 0 0.2)
(0.2 0 0 0 0.2 0 0 0 0.2)
(0.2 0 0 0 0.2 0 0 0 0.2)
(0.2 0 0 0 0.2 0 0 0 0.2)
(0.2 0 0 0 0.2 0 0 0 0.2)
(0.2 0 0 0 0.2 0 0 0 0.2)
(0.2 0 0 0 0.2 0 0 0 0.2)
(0.2 0 0 0 0.2 0 0 0 0.2)
(0.2 0 0 0 0.2 0 0 0 0.2)
(0.2 0 0 0 0.2 0 0 0 0.2)
(0.2 0 0 0 0.2 0 0 0 0.2)
(0.2 0 0 0 0.2 0 0 0 0.2)
(0.2 0 0 0 0.2 0 0 0 0.2)
(0.2 0 0 0 0.2 0 0 0 0.2)
(0.2 0 0 0 0.2 0 0 0 0.2)
(0.2 0 0 0 0.2 0 0 0 0.2)
(0.2 0 0 0 0.2 0 0 0 0.2)
(0.2 0 0 0 0.2 0 0 0 0.2)
(0.2 0 0 0 0.2 0 0 0 0.2)
(0.2 0 0 0 0.2 0 0 0 0.2)
(0.2 0 0 0 0.2 0 0 0 0.2)
(0.2 0 0 0 0.2 0 0 0 0.2)
(0.2 0 0 0 0.2 0 0 0 0.2)
(0.2 0 0 0 0.2 0 0 0 0.2)
(0.2 0 0 0 0.2 0 0 0 0.2)
(0.2 0 0 0 0.2 0 0 0 0.2)
(0.2 0 0 0 0.2 0 0 0 0.2)
(0.2 0 0 0 0.2 0 0 0 0.2)
(0.2 0 0 0 0.2 0 0 0 0.2)
(0.2 0 0 0 0.2 0 0 0 0.2)
(0.2 0 0 0 0.2 0 0 0 0.2)
(0.2 0 0 0 0.2 0 0 0 0.2)
(0.2 0 0 0 0.2 0 0 0 0.2)
(0.2 0 0 0 0.2 0 0 0 0.2)
(0.2 0 0 0 0.2 0 0 0 0.2)
(0.2 0 0 0 0.2 0 0 0 0.2)
(0.2 0 0 0 0.2 0 0 0 0.2)
(0.2 0 0 0 0.2 0 0 0 0.2)
(0.2 0 0 0 0.2 0 0 0 0.2)
(0.2 0 0 0 0.2 0 0 0 0.2)
(0.2 0 0 0 0.2 0 0 0 0.2)
(0.2 0 0 0 0.2 0 0 0 0.2)
(0.2 0 0 0 0.2 0 0 0 0.2)
(0.2 0 0 0 0.2 0 0 0 0.2)
(0.2 0 0 0 0.2 0 0 0 0.2)
(0.2 0 0 0 0.2 0 0 0 0.2)
(0.2 0 0 0 0.2 0 0 0 0.2)
(0.2 0 0 0 0.2 0 0 0 0.2)
(0.2 0 0 0 0.2 0 0 0 0.2)
(0.2 0 0 0 0.2 0 0 0 0.2)
(0.2 0 0 0 0.2 0 0 0 0.2)
(0.2 0 0 0 0.2 0 0 0 0.2)
(0.2 0 0 0 0.2 0 0 0 0.2)
(0.2 0 0 0 0.2 0 0 0 0.2)
(0.2 0 0 0 0.2 0 0 0 0.2)
(0.2 0 0 0 0.2 0 0 0 0.2)
(0.2 0 0 0 0.2 0 0 0 0.2)
(0.2 0 0 0 0.2 0 0 0 0.2)
(0.2 0 0 0 0.2 0 0 0 0.2)
(0.2 0 0 0 0.2 0 0 0 0.2)
(0.2 0 0 0 0.2 0 0 0 0.2)
(0.2 0 0 0 0.2 0 0 0 0.2)
(0.2 0 0 0 0.2 0 0 0 0.2)
(0.2 0 0 0 0.2 0 0 0 0.2)
(0.2 0 0 0 0.2 0 0 0 0.2)
(0.2 0 0 0 0.2 0 0 0 0.2)
(0.2 0 0 0 0.2 0 0 0 0.2)
(0.2 0 0 0 0.2 0 0 0 0.2)
(0.2 0 0 0 0.2 0 0 0 0.2)
(0.2 0 0 0 0.2 0 0 0 0.2)
(0.2 0 0 0 0.2 0 0 0 0.2)
(0.2 0 0 0 0.2 0 0 0 0.2)
(0.2 0 0 0 0.2 0 0 0 0.2)
(0.2 0 0 0 0.2 0 0 0 0.2)
(0.2 0 0 0 0.2 0 0 0 0.2)
(0.2 0 0 0 0.2 0 0 0 0.2)
(0.2 0 0 0 0.2 0 0 0 0.2)
(0.2 0 0 0 0.2 0 0 0 0.2)
(0.2 0 0 0 0.2 0 0 0 0.2)
(0.2 0 0 0 0.2 0 0 0 0.2)
(0.2 0 0 0 0.2 0 0 0 0.2)
(0.2 0 0 0 0.2 0 0 0 0.2)
(0.2 0 0 0 0.2 0 0 0 0.2)
(0.2 0 0 0 0.2 0 0 0 0.2)
(0.2 0 0 0 0.2 0 0 0 0.2)
(0.2 0 0 0 0.2 0 0 0 0.2)
(0.2 0 0 0 0.2 0 0 0 0.2)
(0.2 0 0 0 0.2 0 0 0 0.2)
(0.2 0 0 0 0.2 0 0 0 0.2)
(0.2 0 0 0 0.2 0 0 0 0.2)
(0.2 0 0 0 0.2 0 0 0 0.2)
(0.2 0 0 0 0.2 0 0 0 0.2)
(0.2 0 0 0 0.2 0 0 0 0.2)
(0.2 0 0 0 0.2 0 0 0 0.2)
(0.2 0 0 0 0.2 0 0 0 0.2)
(0.2 0 0 0 0.2 0 0 0 0.2)
(0.2 0 0 0 0.2 0 0 0 0.2)
(0.2 0 0 0 0.2 0 0 0 0.2)
(0.2 0 0 0 0.2 0 0 0 0.2)
(0.2 0 0 0 0.2 0 0 0 0.2)
(0.2 0 0 0 0.2 0 0 0 0.2)
(0.2 0 0 0 0.2 0 0 0 0.2)
(0.2 0 0 0 0.2 0 0 0 0.2)
(0.2 0 0 0 0.2 0 0 0 0.2)
(0.2 0 0 0 0.2 0 0 0 0.2)
(0.2 0 0 0 0.2 0 0 0 0.2)
(0.2 0 0 0 0.2 0 0 0 0.2)
(0.2 0 0 0 0.2 0 0 0 0.2)
(0.2 0 0 0 0.2 0 0 0 0.2)
(0.2 0 0 0 0.2 0 0 0 0.2)
(0.2 0 0 0 0.2 0 0 0 0.2)
(0.2 0 0 0 0.2 0 0 0 0.2)
(0.0096078 0 0 0 0.000096078 0 0 0 0.000096078)
(0.0055686 0 0 0 0.0055686 0 0 0 0.0055686)
(0.0090196 0 0 0 0.0090196 0 0 0 0.0090196)
(0.0091765 0 0 0 0.0091765 0 0 0 0.0091765)
(0.0096471 0 0 0 0.0096471 0 0 0 0.0096471)
(0.0098039 0 0 0 0.0098039 0 0 0 0.0098039)
(0.2 0 0 0 0.2 0 0 0 0.2)
(0.2 0 0 0 0.2 0 0 0 0.2)
(0.2 0 0 0 0.2 0 0 0 0.2)
(0.2 0 0 0 0.2 0 0 0 0.2)
(0.2 0 0 0 0.2 0 0 0 0.2)
(0.2 0 0 0 0.2 0 0 0 0.2)
(0.2 0 0 0 0.2 0 0 0 0.2)
(0.2 0 0 0 0.2 0 0 0 0.2)
(0.2 0 0 0 0.2 0 0 0 0.2)
(0.2 0 0 0 0.2 0 0 0 0.2)
(0.2 0 0 0 0.2 0 0 0 0.2)
(0.2 0 0 0 0.2 0 0 0 0.2)
(0.2 0 0 0 0.2 0 0 0 0.2)
(0.2 0 0 0 0.2 0 0 0 0.2)
(0.2 0 0 0 0.2 0 0 0 0.2)
(0.2 0 0 0 0.2 0 0 0 0.2)
(0.2 0 0 0 0.2 0 0 0 0.2)
(0.2 0 0 0 0.2 0 0 0 0.2)
(0.2 0 0 0 0.2 0 0 0 0.2)
(0.2 0 0 0 0.2 0 0 0 0.2)
(0.2 0 0 0 0.2 0 0 0 0.2)
(0.2 0 0 0 0.2 0 0 0 0.2)
(0.2 0 0 0 0.2 0 0 0 0.2)
(0.2 0 0 0 0.2 0 0 0 0.2)
(0.2 0 0 0 0.2 0 0 0 0.2)
(0.2 0 0 0 0.2 0 0 0 0.2)
(0.2 0 0 0 0.2 0 0 0 0.2)
(0.2 0 0 0 0.2 0 0 0 0.2)
(0.2 0 0 0 0.2 0 0 0 0.2)
(0.2 0 0 0 0.2 0 0 0 0.2)
(0.2 0 0 0 0.2 0 0 0 0.2)
(0.2 0 0 0 0.2 0 0 0 0.2)
(0.2 0 0 0 0.2 0 0 0 0.2)
(0.2 0 0 0 0.2 0 0 0 0.2)
(0.2 0 0 0 0.2 0 0 0 0.2)
(0.2 0 0 0 0.2 0 0 0 0.2)
(0.2 0 0 0 0.2 0 0 0 0.2)
(0.2 0 0 0 0.2 0 0 0 0.2)
(0.2 0 0 0 0.2 0 0 0 0.2)
(0.2 0 0 0 0.2 0 0 0 0.2)
(0.2 0 0 0 0.2 0 0 0 0.2)
(0.2 0 0 0 0.2 0 0 0 0.2)
(0.2 0 0 0 0.2 0 0 0 0.2)
(0.2 0 0 0 0.2 0 0 0 0.2)
(0.2 0 0 0 0.2 0 0 0 0.2)
(0.2 0 0 0 0.2 0 0 0 0.2)
(0.2 0 0 0 0.2 0 0 0 0.2)
(0.2 0 0 0 0.2 0 0 0 0.2)
(0.2 0 0 0 0.2 0 0 0 0.2)
(0.2 0 0 0 0.2 0 0 0 0.2)
(0.2 0 0 0 0.2 0 0 0 0.2)
(0.2 0 0 0 0.2 0 0 0 0.2)
(0.2 0 0 0 0.2 0 0 0 0.2)
(0.2 0 0 0 0.2 0 0 0 0.2)
(0.2 0 0 0 0.2 0 0 0 0.2)
(0.2 0 0 0 0.2 0 0 0 0.2)
(0.2 0 0 0 0.2 0 0 0 0.2)
(0.2 0 0 0 0.2 0 0 0 0.2)
(0.2 0 0 0 0.2 0 0 0 0.2)
(0.2 0 0 0 0.2 0 0 0 0.2)
(0.2 0 0 0 0.2 0 0 0 0.2)
(0.2 0 0 0 0.2 0 0 0 0.2)
(0.2 0 0 0 0.2 0 0 0 0.2)
(0.2 0 0 0 0.2 0 0 0 0.2)
(0.2 0 0 0 0.2 0 0 0 0.2)
(0.2 0 0 0 0.2 0 0 0 0.2)
(0.2 0 0 0 0.2 0 0 0 0.2)
(0.2 0 0 0 0.2 0 0 0 0.2)
(0.2 0 0 0 0.2 0 0 0 0.2)
(0.2 0 0 0 0.2 0 0 0 0.2)
(0.2 0 0 0 0.2 0 0 0 0.2)
(0.2 0 0 0 0.2 0 0 0 0.2)
(0.2 0 0 0 0.2 0 0 0 0.2)
(0.2 0 0 0 0.2 0 0 0 0.2)
(0.2 0 0 0 0.2 0 0 0 0.2)
(0.2 0 0 0 0.2 0 0 0 0.2)
(0.2 0 0 0 0.2 0 0 0 0.2)
(0.2 0 0 0 0.2 0 0 0 0.2)
(0.2 0 0 0 0.2 0 0 0 0.2)
(0.2 0 0 0 0.2 0 0 0 0.2)
(0.2 0 0 0 0.2 0 0 0 0.2)
(0.2 0 0 0 0.2 0 0 0 0.2)
(0.2 0 0 0 0.2 0 0 0 0.2)
(0.2 0 0 0 0.2 0 0 0 0.2)
(0.2 0 0 0 0.2 0 0 0 0.2)
(0.2 0 0 0 0.2 0 0 0 0.2)
(0.2 0 0 0 0.2 0 0 0 0.2)
(0.2 0 0 0 0.2 0 0 0 0.2)
(0.2 0 0 0 0.2 0 0 0 0.2)
(0.2 0 0 0 0.2 0 0 0 0.2)
(0.2 0 0 0 0.2 0 0 0 0.2)
(0.2 0 0 0 0.2 0 0 0 0.2)
(0.2 0 0 0 0.2 0 0 0 0.2)
(0.2 0 0 0 0.2 0 0 0 0.2)
(0.2 0 0 0 0.2 0 0 0 0.2)
(0.2 0 0 0 0.2 0 0 0 0.2)
(0.2 0 0 0 0.2 0 0 0 0.2)
(0.2 0 0 0 0.2 0 0 0 0.2)
(0.2 0 0 0 0.2 0 0 0 0.2)
(0.2 0 0 0 0.2 0 0 0 0.2)
(0.2 0 0 0 0.2 0 0 0 0.2)
(0.2 0 0 0 0.2 0 0 0 0.2)
(0.2 0 0 0 0.2 0 0 0 0.2)
(0.2 0 0 0 0.2 0 0 0 0.2)
(0.2 0 0 0 0.2 0 0 0 0.2)
(0.2 0 0 0 0.2 0 0 0 0.2)
(0.2 0 0 0 0.2 0 0 0 0.2)
(0.2 0 0 0 0.2 0 0 0 0.2)
(0.2 0 0 0 0.2 0 0 0 0.2)
(0.2 0 0 0 0.2 0 0 0 0.2)
(0.2 0 0 0 0.2 0 0 0 0.2)
(0.2 0 0 0 0.2 0 0 0 0.2)
(0.2 0 0 0 0.2 0 0 0 0.2)
(0.2 0 0 0 0.2 0 0 0 0.2)
(0.2 0 0 0 0.2 0 0 0 0.2)
(0.2 0 0 0 0.2 0 0 0 0.2)
(0.2 0 0 0 0.2 0 0 0 0.2)
(0.2 0 0 0 0.2 0 0 0 0.2)
(0.2 0 0 0 0.2 0 0 0 0.2)
(0.2 0 0 0 0.2 0 0 0 0.2)
(0.2 0 0 0 0.2 0 0 0 0.2)
(0.2 0 0 0 0.2 0 0 0 0.2)
(0.2 0 0 0 0.2 0 0 0 0.2)
(0.2 0 0 0 0.2 0 0 0 0.2)
(0.2 0 0 0 0.2 0 0 0 0.2)
(0.2 0 0 0 0.2 0 0 0 0.2)
(0.2 0 0 0 0.2 0 0 0 0.2)
(0.2 0 0 0 0.2 0 0 0 0.2)
(0.2 0 0 0 0.2 0 0 0 0.2)
(0.2 0 0 0 0.2 0 0 0 0.2)
(0.2 0 0 0 0.2 0 0 0 0.2)
(0.2 0 0 0 0.2 0 0 0 0.2)
(0.2 0 0 0 0.2 0 0 0 0.2)
(0.2 0 0 0 0.2 0 0 0 0.2)
(0.2 0 0 0 0.2 0 0 0 0.2)
(0.2 0 0 0 0.2 0 0 0 0.2)
(0.2 0 0 0 0.2 0 0 0 0.2)
(0.2 0 0 0 0.2 0 0 0 0.2)
(0.2 0 0 0 0.2 0 0 0 0.2)
(0.2 0 0 0 0.2 0 0 0 0.2)
(0.2 0 0 0 0.2 0 0 0 0.2)
(0.2 0 0 0 0.2 0 0 0 0.2)
(0.2 0 0 0 0.2 0 0 0 0.2)
(0.0099216 0 0 0 0.0099216 0 0 0 0.0099216)
(0.0080392 0 0 0 0.0080392 0 0 0 0.0080392)
(0.0001 0 0 0 0.0001 0 0 0 0.0001)
(0.0001 0 0 0 0.0001 0 0 0 0.0001)
(0.0001 0 0 0 0.0001 0 0 0 0.0001)
(0.0020392 0 0 0 0.0020392 0 0 0 0.0020392)
(0.003098 0 0 0 0.003098 0 0 0 0.003098)
(0.0079608 0 0 0 0.0079608 0 0 0 0.0079608)
(0.0084314 0 0 0 0.0084314 0 0 0 0.0084314)
(0.0085882 0 0 0 0.0085882 0 0 0 0.0085882)
(0.0093333 0 0 0 0.0093333 0 0 0 0.0093333)
(0.0094902 0 0 0 0.0094902 0 0 0 0.0094902)
(0.2 0 0 0 0.2 0 0 0 0.2)
(0.2 0 0 0 0.2 0 0 0 0.2)
(0.2 0 0 0 0.2 0 0 0 0.2)
(0.2 0 0 0 0.2 0 0 0 0.2)
(0.2 0 0 0 0.2 0 0 0 0.2)
(0.2 0 0 0 0.2 0 0 0 0.2)
(0.2 0 0 0 0.2 0 0 0 0.2)
(0.2 0 0 0 0.2 0 0 0 0.2)
(0.2 0 0 0 0.2 0 0 0 0.2)
(0.2 0 0 0 0.2 0 0 0 0.2)
(0.2 0 0 0 0.2 0 0 0 0.2)
(0.2 0 0 0 0.2 0 0 0 0.2)
(0.2 0 0 0 0.2 0 0 0 0.2)
(0.2 0 0 0 0.2 0 0 0 0.2)
(0.2 0 0 0 0.2 0 0 0 0.2)
(0.2 0 0 0 0.2 0 0 0 0.2)
(0.2 0 0 0 0.2 0 0 0 0.2)
(0.2 0 0 0 0.2 0 0 0 0.2)
(0.2 0 0 0 0.2 0 0 0 0.2)
(0.2 0 0 0 0.2 0 0 0 0.2)
(0.2 0 0 0 0.2 0 0 0 0.2)
(0.2 0 0 0 0.2 0 0 0 0.2)
(0.2 0 0 0 0.2 0 0 0 0.2)
(0.2 0 0 0 0.2 0 0 0 0.2)
(0.2 0 0 0 0.2 0 0 0 0.2)
(0.2 0 0 0 0.2 0 0 0 0.2)
(0.2 0 0 0 0.2 0 0 0 0.2)
(0.2 0 0 0 0.2 0 0 0 0.2)
(0.2 0 0 0 0.2 0 0 0 0.2)
(0.2 0 0 0 0.2 0 0 0 0.2)
(0.2 0 0 0 0.2 0 0 0 0.2)
(0.2 0 0 0 0.2 0 0 0 0.2)
(0.2 0 0 0 0.2 0 0 0 0.2)
(0.2 0 0 0 0.2 0 0 0 0.2)
(0.2 0 0 0 0.2 0 0 0 0.2)
(0.2 0 0 0 0.2 0 0 0 0.2)
(0.2 0 0 0 0.2 0 0 0 0.2)
(0.2 0 0 0 0.2 0 0 0 0.2)
(0.2 0 0 0 0.2 0 0 0 0.2)
(0.2 0 0 0 0.2 0 0 0 0.2)
(0.2 0 0 0 0.2 0 0 0 0.2)
(0.2 0 0 0 0.2 0 0 0 0.2)
(0.2 0 0 0 0.2 0 0 0 0.2)
(0.2 0 0 0 0.2 0 0 0 0.2)
(0.2 0 0 0 0.2 0 0 0 0.2)
(0.2 0 0 0 0.2 0 0 0 0.2)
(0.2 0 0 0 0.2 0 0 0 0.2)
(0.2 0 0 0 0.2 0 0 0 0.2)
(0.2 0 0 0 0.2 0 0 0 0.2)
(0.2 0 0 0 0.2 0 0 0 0.2)
(0.2 0 0 0 0.2 0 0 0 0.2)
(0.2 0 0 0 0.2 0 0 0 0.2)
(0.2 0 0 0 0.2 0 0 0 0.2)
(0.2 0 0 0 0.2 0 0 0 0.2)
(0.2 0 0 0 0.2 0 0 0 0.2)
(0.2 0 0 0 0.2 0 0 0 0.2)
(0.2 0 0 0 0.2 0 0 0 0.2)
(0.2 0 0 0 0.2 0 0 0 0.2)
(0.2 0 0 0 0.2 0 0 0 0.2)
(0.2 0 0 0 0.2 0 0 0 0.2)
(0.2 0 0 0 0.2 0 0 0 0.2)
(0.2 0 0 0 0.2 0 0 0 0.2)
(0.2 0 0 0 0.2 0 0 0 0.2)
(0.2 0 0 0 0.2 0 0 0 0.2)
(0.2 0 0 0 0.2 0 0 0 0.2)
(0.2 0 0 0 0.2 0 0 0 0.2)
(0.2 0 0 0 0.2 0 0 0 0.2)
(0.2 0 0 0 0.2 0 0 0 0.2)
(0.2 0 0 0 0.2 0 0 0 0.2)
(0.2 0 0 0 0.2 0 0 0 0.2)