/*--------------------------------*- C++ -*----------------------------------*\
| =========                 |                                                 |
| \\      /  F ield         | OpenFOAM: The Open Source CFD Toolbox           |
|  \\    /   O peration     | Version:  2.1.0                                 |
|   \\  /    A nd           | Web:      www.OpenFOAM.org                      |
|    \\/     M anipulation  |                                                 |
\*---------------------------------------------------------------------------*/
FoamFile
{
    version     2.0;
    format      ascii;
    class       polyBoundaryMesh;
    location    "constant/polyMesh";
    object      boundary;
}
// * * * * * * * * * * * * * * * * * * * * * * * * * * * * * * * * * * * * * //

6
(
    left
    {
        type            patch;
        nFaces          1;
        startFace       39;
    }
    right
    {
        type            patch;
        nFaces          1;
        startFace       40;
    }
    up
    {
        type            empty;
        nFaces          40;
        startFace       41;
    }
    down
    {
        type            empty;
        nFaces          40;
        startFace       81;
    }
    front
    {
        type            empty;
        nFaces          40;
        startFace       121;
    }
    back
    {
        type            empty;
        nFaces          40;
        startFace       161;
    }
)

// ************************************************************************* //
