/*--------------------------------*- C++ -*----------------------------------*\
| =========                 |                                                 |
| \\      /  F ield         | OpenFOAM: The Open Source CFD Toolbox           |
|  \\    /   O peration     | Version:  1.6                                   |
|   \\  /    A nd           | Web:      www.OpenFOAM.org                      |
|    \\/     M anipulation  |                                                 |
\*---------------------------------------------------------------------------*/
FoamFile
{
    version     2.0;
    format      ascii;
    class       polyBoundaryMesh;
    location    "constant/polyMesh";
    object      boundary;
}
// * * * * * * * * * * * * * * * * * * * * * * * * * * * * * * * * * * * * * //

6
(
    left
    {
        type            patch;
        nFaces          2000;
        startFace       115600;
    }
    down
    {
        type            patch;
        nFaces          400;
        startFace       117600;
    }
    up
    {
        type            patch;
        nFaces          400;
        startFace       118000;
    }
    right
    {
        type            patch;
        nFaces          2000;
        startFace       118400;
    }
    front
    {
        type            patch;
        nFaces          2000;
        startFace       120400;
    }
    back
    {
        type            patch;
        nFaces          2000;
        startFace       122400;
    }
)

// ************************************************************************* //
