/*--------------------------------*- C++ -*----------------------------------*\
| =========                 |                                                 |
| \\      /  F ield         | OpenFOAM: The Open Source CFD Toolbox           |
|  \\    /   O peration     | Version:  1.5                                   |
|   \\  /    A nd           | Web:      http://www.OpenFOAM.org               |
|    \\/     M anipulation  |                                                 |
\*---------------------------------------------------------------------------*/
FoamFile
{
    version     2.0;
    format      ascii;
    class       dictionary;
    object      transportProperties;
}
// * * * * * * * * * * * * * * * * * * * * * * * * * * * * * * * * * * * * * //

//------------------------- (Using Customary Unit) --------------------------//
// Unit conversion facors:
ALPHA_C         ALPHA_C [0 0 0 0 0 0 0] 5.614583;     // 1;
BETA_C          BETA_C  [0 0 0 0 0 0 0] 1.127;        // 86.4e-6;
GAMA_C          GAMA_C  [0 0 0 0 0 0 0] 0.21584e-3;   // 1e-3;
// Fluid properties:
mu_o            mu_o    [1 -1 -1 0 0 0 0] 1;
mu_w            mu_w    [1 -1 -1 0 0 0 0] 0.5;
rho_osc         rho_osc [1 -3 0 0 0 0 0] 1;
rho_wsc         rho_wsc [1 -3 0 0 0 0 0] 1;
// Reference Pressure at minimum reservoir deep:
Pref            Pref          [1 -1 -2 0 0 0 0] 0;
refCellPoint    refCellPoint  [0 1 0 0 0 0 0] (500 0 25);
// Local gravity:
G               G       [0 1 -2 0 0 0 0] 0;
// Maximum saturation gap:
DSmax           DSmax   [0 0 0 0 0 0 0] 0.001;
// Automatic timestep selection option:
DtOpt           DtOpt   [0 0 0 0 0 0 0] 0; // 1 to automatic timestep.
// Oil water contact deep:
OWC             OWC     [0 1 0 0 0 0 0] 0; // 0 to no initial free water
// Well line set step dz (equals to block dz size):
dz              dz      [0 1 0 0 0 0 0] 0; // 0 to 1D and 2D problems.
// ************************************************************************* //
