/*--------------------------------*- C++ -*----------------------------------*\
| =========                 |                                                 |
| \\      /  F ield         | OpenFOAM: The Open Source CFD Toolbox           |
|  \\    /   O peration     | Version:  1.6                                   |
|   \\  /    A nd           | Web:      www.OpenFOAM.org                      |
|    \\/     M anipulation  |                                                 |
\*---------------------------------------------------------------------------*/
FoamFile
{
    version     2.0;
    format      ascii;
    class       volScalarField;
    location    "constant";
    object      T;
}
// * * * * * * * * * * * * * * * * * * * * * * * * * * * * * * * * * * * * * //

dimensions      [0 0 0 0 0 0 0];

internalField   nonuniform List<scalar> 
200000
(
0.00999921
0.00999934
0.00999942
0.00999948
0.00999952
0.00999955
0.00999957
0.00999959
0.00999961
0.00999964
0.00999967
0.0099997
0.00999973
0.00999976
0.0099998
0.00999983
0.00999985
0.00999987
0.00999989
0.0099999
0.0299976
0.029998
0.0299983
0.0299984
0.0299986
0.0299986
0.0299987
0.0299988
0.0299988
0.0299989
0.029999
0.0299991
0.0299992
0.0299993
0.0299994
0.0299995
0.0299996
0.0299996
0.0299997
0.0299997
0.049996
0.0499966
0.049997
0.0499973
0.0499975
0.0499977
0.0499978
0.0499979
0.049998
0.0499981
0.0499983
0.0499985
0.0499986
0.0499988
0.049999
0.0499991
0.0499993
0.0499994
0.0499995
0.0499995
0.0699943
0.0699951
0.0699957
0.0699961
0.0699964
0.0699966
0.0699968
0.069997
0.0699971
0.0699973
0.0699975
0.0699978
0.069998
0.0699983
0.0699985
0.0699988
0.069999
0.0699991
0.0699993
0.0699993
0.0899924
0.0899935
0.0899942
0.0899948
0.0899952
0.0899954
0.0899957
0.0899959
0.0899962
0.0899964
0.0899967
0.0899971
0.0899974
0.0899978
0.0899981
0.0899984
0.0899987
0.0899989
0.0899991
0.0899992
0.10999
0.109992
0.109993
0.109993
0.109994
0.109994
0.109994
0.109995
0.109995
0.109995
0.109996
0.109996
0.109997
0.109997
0.109998
0.109998
0.109998
0.109999
0.109999
0.109999
0.129988
0.12999
0.129991
0.129991
0.129992
0.129992
0.129993
0.129993
0.129994
0.129994
0.129995
0.129995
0.129996
0.129997
0.129997
0.129998
0.129998
0.129998
0.129999
0.129999
0.149986
0.149987
0.149988
0.149989
0.14999
0.149991
0.149991
0.149992
0.149992
0.149993
0.149994
0.149994
0.149995
0.149996
0.149997
0.149997
0.149998
0.149998
0.149999
0.149999
0.169983
0.169985
0.169986
0.169987
0.169988
0.169988
0.169989
0.16999
0.169991
0.169991
0.169992
0.169993
0.169994
0.169995
0.169996
0.169997
0.169997
0.169998
0.169998
0.169999
0.189979
0.189981
0.189983
0.189984
0.189985
0.189986
0.189987
0.189988
0.189989
0.18999
0.189991
0.189992
0.189993
0.189994
0.189995
0.189996
0.189997
0.189998
0.189998
0.189999
0.209976
0.209978
0.20998
0.209981
0.209982
0.209983
0.209984
0.209985
0.209986
0.209988
0.209989
0.209991
0.209992
0.209993
0.209995
0.209996
0.209997
0.209998
0.209998
0.209999
0.229972
0.229974
0.229976
0.229977
0.229978
0.22998
0.229981
0.229982
0.229984
0.229986
0.229987
0.229989
0.229991
0.229993
0.229994
0.229995
0.229997
0.229997
0.229998
0.229999
0.249968
0.24997
0.249972
0.249973
0.249975
0.249976
0.249978
0.249979
0.249981
0.249983
0.249985
0.249987
0.249989
0.249992
0.249993
0.249995
0.249996
0.249997
0.249998
0.249999
0.269963
0.269965
0.269967
0.269969
0.26997
0.269972
0.269974
0.269976
0.269978
0.269981
0.269983
0.269986
0.269988
0.26999
0.269993
0.269995
0.269996
0.269997
0.269998
0.269999
0.289958
0.28996
0.289962
0.289964
0.289965
0.289967
0.28997
0.289972
0.289975
0.289978
0.289981
0.289984
0.289986
0.289989
0.289992
0.289994
0.289996
0.289997
0.289998
0.289999
0.309952
0.309954
0.309956
0.309958
0.30996
0.309963
0.309965
0.309968
0.309971
0.309975
0.309978
0.309981
0.309985
0.309988
0.309991
0.309993
0.309995
0.309997
0.309998
0.309999
0.329946
0.329948
0.32995
0.329952
0.329955
0.329957
0.32996
0.329964
0.329967
0.329971
0.329975
0.329979
0.329983
0.329987
0.32999
0.329993
0.329995
0.329997
0.329998
0.329999
0.349939
0.349941
0.349943
0.349946
0.349949
0.349952
0.349955
0.349959
0.349963
0.349968
0.349972
0.349977
0.349981
0.349985
0.349989
0.349992
0.349995
0.349997
0.349998
0.349999
0.369932
0.369934
0.369937
0.369939
0.369942
0.369946
0.36995
0.369954
0.369959
0.369964
0.369969
0.369974
0.369979
0.369984
0.369988
0.369992
0.369995
0.369997
0.369998
0.369999
0.389925
0.389927
0.389929
0.389932
0.389935
0.389939
0.389944
0.389949
0.389954
0.38996
0.389966
0.389971
0.389977
0.389982
0.389987
0.389991
0.389994
0.389997
0.389998
0.389999
0.409917
0.409919
0.409921
0.409924
0.409928
0.409932
0.409938
0.409943
0.409949
0.409956
0.409962
0.409969
0.409975
0.409981
0.409986
0.40999
0.409994
0.409997
0.409999
0.409999
0.429909
0.429911
0.429913
0.429917
0.429921
0.429925
0.429931
0.429937
0.429944
0.429951
0.429959
0.429966
0.429973
0.429979
0.429985
0.42999
0.429994
0.429997
0.429999
0.43
0.4499
0.449902
0.449905
0.449908
0.449913
0.449918
0.449924
0.449931
0.449939
0.449947
0.449955
0.449963
0.44997
0.449977
0.449984
0.449989
0.449993
0.449997
0.449999
0.45
0.469892
0.469893
0.469896
0.4699
0.469905
0.46991
0.469917
0.469925
0.469933
0.469942
0.469951
0.46996
0.469968
0.469976
0.469982
0.469988
0.469993
0.469996
0.469999
0.47
0.489883
0.489884
0.489887
0.489891
0.489896
0.489903
0.48991
0.489919
0.489928
0.489937
0.489947
0.489956
0.489965
0.489974
0.489981
0.489987
0.489992
0.489996
0.489999
0.49
0.509874
0.509875
0.509878
0.509882
0.509888
0.509895
0.509903
0.509912
0.509922
0.509932
0.509943
0.509953
0.509963
0.509972
0.50998
0.509986
0.509992
0.509996
0.509999
0.51
0.529864
0.529865
0.529868
0.529873
0.529879
0.529887
0.529895
0.529905
0.529916
0.529927
0.529939
0.52995
0.52996
0.52997
0.529978
0.529986
0.529991
0.529996
0.529999
0.53
0.549855
0.549856
0.549859
0.549864
0.54987
0.549878
0.549888
0.549899
0.54991
0.549922
0.549935
0.549946
0.549958
0.549968
0.549977
0.549985
0.549991
0.549995
0.549998
0.55
0.569845
0.569846
0.569849
0.569854
0.569861
0.56987
0.56988
0.569892
0.569904
0.569917
0.56993
0.569943
0.569955
0.569966
0.569975
0.569984
0.56999
0.569995
0.569998
0.57
0.589836
0.589836
0.58984
0.589845
0.589852
0.589862
0.589873
0.589885
0.589898
0.589912
0.589926
0.589939
0.589952
0.589964
0.589974
0.589982
0.589989
0.589995
0.589998
0.589999
0.609826
0.609827
0.60983
0.609836
0.609843
0.609853
0.609865
0.609878
0.609892
0.609907
0.609922
0.609936
0.609949
0.609962
0.609972
0.609981
0.609989
0.609994
0.609998
0.609999
0.629816
0.629817
0.62982
0.629826
0.629835
0.629845
0.629858
0.629871
0.629887
0.629902
0.629917
0.629932
0.629947
0.629959
0.629971
0.62998
0.629988
0.629994
0.629997
0.629999
0.649807
0.649807
0.649811
0.649817
0.649826
0.649837
0.64985
0.649865
0.649881
0.649897
0.649913
0.649929
0.649944
0.649957
0.649969
0.649979
0.649987
0.649993
0.649997
0.649999
0.669798
0.669798
0.669801
0.669808
0.669817
0.669829
0.669843
0.669858
0.669875
0.669892
0.669909
0.669925
0.669941
0.669955
0.669967
0.669977
0.669986
0.669992
0.669996
0.669998
0.689788
0.689789
0.689792
0.689799
0.689809
0.689821
0.689836
0.689852
0.689869
0.689887
0.689905
0.689922
0.689938
0.689952
0.689965
0.689976
0.689985
0.689991
0.689996
0.689998
0.709779
0.70978
0.709783
0.70979
0.709801
0.709813
0.709829
0.709845
0.709863
0.709882
0.7099
0.709918
0.709935
0.70995
0.709964
0.709975
0.709984
0.709991
0.709995
0.709997
0.729771
0.729771
0.729775
0.729782
0.729793
0.729806
0.729822
0.729839
0.729858
0.729877
0.729896
0.729915
0.729932
0.729948
0.729962
0.729973
0.729983
0.72999
0.729994
0.729997
0.749763
0.749762
0.749766
0.749774
0.749785
0.749799
0.749815
0.749833
0.749852
0.749872
0.749892
0.749911
0.749929
0.749945
0.74996
0.749972
0.749981
0.749989
0.749994
0.749996
0.769755
0.769754
0.769758
0.769766
0.769777
0.769792
0.769809
0.769827
0.769847
0.769868
0.769888
0.769908
0.769926
0.769943
0.769958
0.76997
0.76998
0.769988
0.769993
0.769996
0.789747
0.789747
0.789751
0.789759
0.78977
0.789785
0.789802
0.789822
0.789842
0.789863
0.789884
0.789905
0.789924
0.789941
0.789956
0.789969
0.789979
0.789987
0.789992
0.789995
0.80974
0.809739
0.809744
0.809752
0.809764
0.809779
0.809797
0.809816
0.809838
0.809859
0.809881
0.809901
0.809921
0.809938
0.809954
0.809967
0.809978
0.809986
0.809991
0.809994
0.829733
0.829733
0.829737
0.829745
0.829757
0.829773
0.829791
0.829811
0.829833
0.829855
0.829877
0.829898
0.829918
0.829936
0.829952
0.829966
0.829977
0.829985
0.829991
0.829994
0.849727
0.849726
0.849731
0.849739
0.849752
0.849767
0.849786
0.849807
0.849829
0.849851
0.849874
0.849895
0.849916
0.849934
0.84995
0.849964
0.849975
0.849984
0.84999
0.849993
0.869721
0.86972
0.869725
0.869734
0.869746
0.869762
0.869781
0.869802
0.869825
0.869848
0.86987
0.869893
0.869913
0.869932
0.869949
0.869963
0.869974
0.869983
0.869989
0.869993
0.889716
0.889715
0.88972
0.889728
0.889741
0.889757
0.889777
0.889798
0.889821
0.889844
0.889867
0.88989
0.889911
0.88993
0.889947
0.889961
0.889973
0.889982
0.889989
0.889992
0.909711
0.909711
0.909715
0.909724
0.909737
0.909753
0.909773
0.909794
0.909817
0.909841
0.909865
0.909887
0.909909
0.909928
0.909945
0.90996
0.909972
0.909982
0.909988
0.909992
0.929707
0.929706
0.929711
0.92972
0.929733
0.929749
0.929769
0.929791
0.929814
0.929838
0.929862
0.929885
0.929907
0.929927
0.929944
0.929959
0.929971
0.929981
0.929988
0.929991
0.949703
0.949703
0.949707
0.949716
0.949729
0.949746
0.949766
0.949788
0.949811
0.949836
0.949859
0.949883
0.949905
0.949925
0.949943
0.949958
0.949971
0.949981
0.949987
0.949991
0.9697
0.9697
0.969704
0.969713
0.969726
0.969743
0.969763
0.969786
0.969809
0.969834
0.969857
0.969881
0.969903
0.969924
0.969942
0.969958
0.96997
0.96998
0.969987
0.969991
0.989698
0.989698
0.989702
0.989711
0.989724
0.989741
0.989761
0.989783
0.989807
0.989832
0.989855
0.98988
0.989902
0.989923
0.989941
0.989957
0.98997
0.98998
0.989987
0.989992
1.0097
1.0097
1.0097
1.00971
1.00972
1.00974
1.00976
1.00978
1.0098
1.00983
1.00985
1.00988
1.0099
1.00992
1.00994
1.00996
1.00997
1.00998
1.00999
1.00999
1.0297
1.02969
1.0297
1.02971
1.02972
1.02974
1.02976
1.02978
1.0298
1.02983
1.02985
1.02988
1.0299
1.02992
1.02994
1.02996
1.02997
1.02998
1.02999
1.02999
1.04969
1.04969
1.0497
1.04971
1.04972
1.04974
1.04976
1.04978
1.0498
1.04983
1.04985
1.04988
1.0499
1.04992
1.04994
1.04996
1.04997
1.04998
1.04999
1.04999
1.06969
1.06969
1.0697
1.06971
1.06972
1.06974
1.06976
1.06978
1.0698
1.06983
1.06985
1.06988
1.0699
1.06992
1.06994
1.06996
1.06997
1.06998
1.06999
1.06999
1.08969
1.08969
1.0897
1.08971
1.08972
1.08974
1.08976
1.08978
1.0898
1.08983
1.08985
1.08988
1.0899
1.08992
1.08994
1.08996
1.08997
1.08998
1.08999
1.08999
1.1097
1.1097
1.1097
1.10971
1.10972
1.10974
1.10976
1.10978
1.1098
1.10983
1.10985
1.10988
1.1099
1.10992
1.10994
1.10996
1.10997
1.10998
1.10999
1.11
1.1297
1.1297
1.1297
1.12971
1.12972
1.12974
1.12976
1.12978
1.1298
1.12983
1.12985
1.12988
1.1299
1.12992
1.12994
1.12996
1.12997
1.12998
1.12999
1.13
1.1497
1.1497
1.1497
1.14971
1.14972
1.14974
1.14976
1.14978
1.1498
1.14983
1.14985
1.14988
1.1499
1.14992
1.14994
1.14996
1.14997
1.14999
1.14999
1.15
1.1697
1.1697
1.16971
1.16971
1.16973
1.16974
1.16976
1.16978
1.16981
1.16983
1.16985
1.16988
1.1699
1.16992
1.16994
1.16996
1.16998
1.16999
1.17
1.17
1.1897
1.1897
1.18971
1.18972
1.18973
1.18975
1.18976
1.18978
1.18981
1.18983
1.18985
1.18988
1.1899
1.18992
1.18994
1.18996
1.18998
1.18999
1.19
1.19
1.20971
1.20971
1.20971
1.20972
1.20973
1.20975
1.20977
1.20979
1.20981
1.20983
1.20986
1.20988
1.2099
1.20993
1.20995
1.20996
1.20998
1.20999
1.21
1.21
1.22971
1.22971
1.22972
1.22972
1.22974
1.22975
1.22977
1.22979
1.22981
1.22983
1.22986
1.22988
1.22991
1.22993
1.22995
1.22997
1.22998
1.22999
1.23
1.23001
1.24971
1.24971
1.24972
1.24973
1.24974
1.24975
1.24977
1.24979
1.24981
1.24984
1.24986
1.24988
1.24991
1.24993
1.24995
1.24997
1.24998
1.25
1.25
1.25001
1.26972
1.26972
1.26972
1.26973
1.26974
1.26976
1.26977
1.26979
1.26982
1.26984
1.26986
1.26989
1.26991
1.26993
1.26995
1.26997
1.26999
1.27
1.27001
1.27001
1.28972
1.28972
1.28973
1.28974
1.28975
1.28976
1.28978
1.2898
1.28982
1.28984
1.28986
1.28989
1.28991
1.28993
1.28995
1.28997
1.28999
1.29
1.29001
1.29001
1.30973
1.30973
1.30973
1.30974
1.30975
1.30977
1.30978
1.3098
1.30982
1.30984
1.30987
1.30989
1.30991
1.30994
1.30996
1.30997
1.30999
1.31
1.31001
1.31001
1.32973
1.32973
1.32974
1.32974
1.32976
1.32977
1.32979
1.3298
1.32982
1.32985
1.32987
1.32989
1.32991
1.32994
1.32996
1.32998
1.32999
1.33
1.33001
1.33001
1.34973
1.34974
1.34974
1.34975
1.34976
1.34977
1.34979
1.34981
1.34983
1.34985
1.34987
1.34989
1.34992
1.34994
1.34996
1.34998
1.34999
1.35
1.35001
1.35002
1.36974
1.36974
1.36975
1.36975
1.36976
1.36978
1.36979
1.36981
1.36983
1.36985
1.36987
1.3699
1.36992
1.36994
1.36996
1.36998
1.36999
1.37001
1.37001
1.37002
1.38974
1.38975
1.38975
1.38976
1.38977
1.38978
1.3898
1.38981
1.38983
1.38985
1.38988
1.3899
1.38992
1.38994
1.38996
1.38998
1.39
1.39001
1.39002
1.39002
1.40975
1.40975
1.40976
1.40976
1.40977
1.40978
1.4098
1.40982
1.40983
1.40985
1.40988
1.4099
1.40992
1.40994
1.40996
1.40998
1.41
1.41001
1.41002
1.41002
1.42975
1.42975
1.42976
1.42977
1.42978
1.42979
1.4298
1.42982
1.42984
1.42986
1.42988
1.4299
1.42992
1.42995
1.42997
1.42998
1.43
1.43001
1.43002
1.43002
1.44976
1.44976
1.44976
1.44977
1.44978
1.44979
1.44981
1.44982
1.44984
1.44986
1.44988
1.4499
1.44993
1.44995
1.44997
1.44998
1.45
1.45001
1.45002
1.45002
1.46976
1.46976
1.46977
1.46977
1.46978
1.46979
1.46981
1.46982
1.46984
1.46986
1.46988
1.4699
1.46993
1.46995
1.46997
1.46999
1.47
1.47001
1.47002
1.47002
1.48976
1.48977
1.48977
1.48978
1.48979
1.4898
1.48981
1.48983
1.48984
1.48986
1.48988
1.48991
1.48993
1.48995
1.48997
1.48999
1.49
1.49001
1.49002
1.49002
1.50977
1.50977
1.50978
1.50978
1.50979
1.5098
1.50981
1.50983
1.50985
1.50987
1.50989
1.50991
1.50993
1.50995
1.50997
1.50999
1.51
1.51001
1.51002
1.51002
1.52977
1.52977
1.52978
1.52979
1.52979
1.5298
1.52982
1.52983
1.52985
1.52987
1.52989
1.52991
1.52993
1.52995
1.52997
1.52999
1.53
1.53001
1.53002
1.53002
1.54978
1.54978
1.54978
1.54979
1.5498
1.54981
1.54982
1.54983
1.54985
1.54987
1.54989
1.54991
1.54993
1.54995
1.54997
1.54999
1.55
1.55001
1.55002
1.55002
1.56978
1.56978
1.56978
1.56979
1.5698
1.56981
1.56982
1.56983
1.56985
1.56987
1.56989
1.56991
1.56993
1.56995
1.56997
1.56999
1.57
1.57001
1.57002
1.57002
1.58978
1.58978
1.58979
1.58979
1.5898
1.58981
1.58982
1.58984
1.58985
1.58987
1.58989
1.58991
1.58993
1.58995
1.58997
1.58999
1.59
1.59001
1.59002
1.59002
1.60978
1.60979
1.60979
1.60979
1.6098
1.60981
1.60982
1.60984
1.60985
1.60987
1.60989
1.60991
1.60993
1.60995
1.60997
1.60999
1.61
1.61001
1.61002
1.61002
1.62978
1.62979
1.62979
1.6298
1.6298
1.62981
1.62983
1.62984
1.62985
1.62987
1.62989
1.62991
1.62993
1.62995
1.62997
1.62999
1.63
1.63001
1.63002
1.63002
1.64979
1.64979
1.64979
1.6498
1.64981
1.64982
1.64983
1.64984
1.64986
1.64987
1.64989
1.64991
1.64993
1.64995
1.64997
1.64999
1.65
1.65001
1.65002
1.65002
1.66979
1.66979
1.66979
1.6698
1.66981
1.66982
1.66983
1.66984
1.66986
1.66987
1.66989
1.66991
1.66993
1.66995
1.66997
1.66998
1.67
1.67001
1.67002
1.67002
1.68979
1.68979
1.68979
1.6898
1.68981
1.68982
1.68983
1.68984
1.68986
1.68987
1.68989
1.68991
1.68993
1.68995
1.68997
1.68998
1.69
1.69001
1.69002
1.69002
1.70979
1.70979
1.7098
1.7098
1.70981
1.70982
1.70983
1.70984
1.70986
1.70987
1.70989
1.70991
1.70993
1.70995
1.70997
1.70998
1.71
1.71001
1.71001
1.71002
1.72979
1.72979
1.7298
1.7298
1.72981
1.72982
1.72983
1.72984
1.72986
1.72987
1.72989
1.72991
1.72993
1.72995
1.72997
1.72998
1.73
1.73001
1.73001
1.73002
1.74979
1.74979
1.7498
1.7498
1.74981
1.74982
1.74983
1.74984
1.74986
1.74987
1.74989
1.74991
1.74993
1.74995
1.74997
1.74998
1.75
1.75001
1.75001
1.75002
1.76979
1.76979
1.7698
1.7698
1.76981
1.76982
1.76983
1.76984
1.76986
1.76987
1.76989
1.76991
1.76993
1.76995
1.76997
1.76998
1.76999
1.77
1.77001
1.77001
1.78979
1.78979
1.7898
1.7898
1.78981
1.78982
1.78983
1.78984
1.78986
1.78988
1.78989
1.78991
1.78993
1.78995
1.78997
1.78998
1.78999
1.79
1.79001
1.79001
1.80979
1.80979
1.8098
1.8098
1.80981
1.80982
1.80983
1.80984
1.80986
1.80988
1.80989
1.80991
1.80993
1.80995
1.80997
1.80998
1.80999
1.81
1.81001
1.81001
1.82979
1.82979
1.8298
1.8298
1.82981
1.82982
1.82983
1.82985
1.82986
1.82988
1.82989
1.82991
1.82993
1.82995
1.82997
1.82998
1.82999
1.83
1.83001
1.83001
1.84979
1.84979
1.8498
1.8498
1.84981
1.84982
1.84983
1.84985
1.84986
1.84988
1.84989
1.84991
1.84993
1.84995
1.84997
1.84998
1.84999
1.85
1.85001
1.85001
1.86979
1.86979
1.8698
1.8698
1.86981
1.86982
1.86983
1.86985
1.86986
1.86988
1.8699
1.86991
1.86993
1.86995
1.86997
1.86998
1.86999
1.87
1.87001
1.87001
1.88979
1.88979
1.8898
1.8898
1.88981
1.88982
1.88983
1.88985
1.88986
1.88988
1.8899
1.88991
1.88993
1.88995
1.88997
1.88998
1.88999
1.89
1.89
1.89001
1.90979
1.90979
1.9098
1.9098
1.90981
1.90982
1.90983
1.90985
1.90986
1.90988
1.9099
1.90991
1.90993
1.90995
1.90997
1.90998
1.90999
1.91
1.91
1.91
1.92979
1.92979
1.9298
1.9298
1.92981
1.92982
1.92983
1.92985
1.92986
1.92988
1.9299
1.92992
1.92993
1.92995
1.92997
1.92998
1.92999
1.93
1.93
1.93
1.94979
1.94979
1.9498
1.9498
1.94981
1.94982
1.94984
1.94985
1.94987
1.94988
1.9499
1.94992
1.94993
1.94995
1.94997
1.94998
1.94999
1.94999
1.95
1.95
1.96979
1.96979
1.9698
1.96981
1.96981
1.96982
1.96984
1.96985
1.96987
1.96988
1.9699
1.96992
1.96993
1.96995
1.96996
1.96998
1.96999
1.96999
1.97
1.97
1.98979
1.98979
1.9898
1.98981
1.98981
1.98982
1.98984
1.98985
1.98987
1.98989
1.9899
1.98992
1.98993
1.98995
1.98996
1.98998
1.98998
1.98999
1.99
1.99
2.00979
2.0098
2.0098
2.00981
2.00981
2.00983
2.00984
2.00985
2.00987
2.00989
2.0099
2.00992
2.00994
2.00995
2.00996
2.00997
2.00998
2.00999
2.01
2.01
2.02979
2.0298
2.0298
2.02981
2.02982
2.02983
2.02984
2.02986
2.02987
2.02989
2.0299
2.02992
2.02994
2.02995
2.02996
2.02997
2.02998
2.02999
2.02999
2.03
2.04979
2.0498
2.0498
2.04981
2.04982
2.04983
2.04984
2.04986
2.04987
2.04989
2.04991
2.04992
2.04994
2.04995
2.04996
2.04997
2.04998
2.04999
2.04999
2.04999
2.0698
2.0698
2.0698
2.06981
2.06982
2.06983
2.06984
2.06986
2.06987
2.06989
2.06991
2.06992
2.06994
2.06995
2.06996
2.06997
2.06998
2.06999
2.06999
2.06999
2.0898
2.0898
2.0898
2.08981
2.08982
2.08983
2.08984
2.08986
2.08988
2.08989
2.08991
2.08992
2.08994
2.08995
2.08996
2.08997
2.08998
2.08998
2.08999
2.08999
2.1098
2.1098
2.1098
2.10981
2.10982
2.10983
2.10985
2.10986
2.10988
2.10989
2.10991
2.10992
2.10994
2.10995
2.10996
2.10997
2.10998
2.10998
2.10999
2.10999
2.1298
2.1298
2.1298
2.12981
2.12982
2.12983
2.12985
2.12986
2.12988
2.12989
2.12991
2.12993
2.12994
2.12995
2.12996
2.12997
2.12998
2.12998
2.12999
2.12999
2.1498
2.1498
2.14981
2.14981
2.14982
2.14984
2.14985
2.14987
2.14988
2.1499
2.14991
2.14993
2.14994
2.14995
2.14996
2.14997
2.14998
2.14998
2.14998
2.14999
2.1698
2.1698
2.16981
2.16981
2.16982
2.16984
2.16985
2.16987
2.16988
2.1699
2.16991
2.16993
2.16994
2.16995
2.16996
2.16997
2.16997
2.16998
2.16998
2.16998
2.1898
2.1898
2.18981
2.18982
2.18983
2.18984
2.18985
2.18987
2.18988
2.1899
2.18991
2.18993
2.18994
2.18995
2.18996
2.18997
2.18997
2.18998
2.18998
2.18998
2.20981
2.20981
2.20981
2.20982
2.20983
2.20984
2.20986
2.20987
2.20989
2.2099
2.20992
2.20993
2.20994
2.20995
2.20996
2.20997
2.20997
2.20997
2.20998
2.20998
2.22981
2.22981
2.22981
2.22982
2.22983
2.22984
2.22986
2.22987
2.22989
2.2299
2.22992
2.22993
2.22994
2.22995
2.22996
2.22996
2.22997
2.22997
2.22998
2.22998
2.24981
2.24981
2.24982
2.24982
2.24983
2.24985
2.24986
2.24987
2.24989
2.2499
2.24992
2.24993
2.24994
2.24995
2.24996
2.24996
2.24997
2.24997
2.24997
2.24998
2.26981
2.26981
2.26982
2.26983
2.26984
2.26985
2.26986
2.26988
2.26989
2.26991
2.26992
2.26993
2.26994
2.26995
2.26996
2.26996
2.26997
2.26997
2.26997
2.26997
2.28982
2.28982
2.28982
2.28983
2.28984
2.28985
2.28986
2.28988
2.28989
2.28991
2.28992
2.28993
2.28994
2.28995
2.28996
2.28996
2.28997
2.28997
2.28997
2.28997
2.30982
2.30982
2.30982
2.30983
2.30984
2.30985
2.30987
2.30988
2.3099
2.30991
2.30992
2.30993
2.30994
2.30995
2.30996
2.30996
2.30996
2.30997
2.30997
2.30997
2.32982
2.32982
2.32983
2.32983
2.32984
2.32986
2.32987
2.32988
2.3299
2.32991
2.32992
2.32993
2.32994
2.32995
2.32996
2.32996
2.32996
2.32997
2.32997
2.32997
2.34983
2.34983
2.34983
2.34984
2.34985
2.34986
2.34987
2.34989
2.3499
2.34991
2.34993
2.34994
2.34994
2.34995
2.34996
2.34996
2.34996
2.34997
2.34997
2.34997
2.36983
2.36983
2.36983
2.36984
2.36985
2.36986
2.36988
2.36989
2.3699
2.36992
2.36993
2.36994
2.36995
2.36995
2.36996
2.36996
2.36996
2.36996
2.36997
2.36997
2.38983
2.38983
2.38984
2.38985
2.38986
2.38987
2.38988
2.38989
2.38991
2.38992
2.38993
2.38994
2.38995
2.38995
2.38996
2.38996
2.38996
2.38996
2.38997
2.38997
2.40984
2.40984
2.40984
2.40985
2.40986
2.40987
2.40988
2.4099
2.40991
2.40992
2.40993
2.40994
2.40995
2.40995
2.40996
2.40996
2.40996
2.40996
2.40997
2.40997
2.42984
2.42984
2.42985
2.42985
2.42986
2.42988
2.42989
2.4299
2.42991
2.42993
2.42994
2.42994
2.42995
2.42996
2.42996
2.42996
2.42996
2.42996
2.42997
2.42997
2.44985
2.44985
2.44985
2.44986
2.44987
2.44988
2.44989
2.4499
2.44992
2.44993
2.44994
2.44995
2.44995
2.44996
2.44996
2.44996
2.44996
2.44997
2.44997
2.44997
2.46985
2.46985
2.46986
2.46986
2.46987
2.46988
2.4699
2.46991
2.46992
2.46993
2.46994
2.46995
2.46996
2.46996
2.46996
2.46996
2.46997
2.46997
2.46997
2.46997
2.48986
2.48986
2.48986
2.48987
2.48988
2.48989
2.4899
2.48991
2.48993
2.48994
2.48994
2.48995
2.48996
2.48996
2.48996
2.48997
2.48997
2.48997
2.48997
2.48997
2.50987
2.50987
2.50987
2.50988
2.50989
2.5099
2.50991
2.50992
2.50993
2.50994
2.50995
2.50995
2.50996
2.50996
2.50997
2.50997
2.50997
2.50997
2.50997
2.50997
2.52987
2.52987
2.52988
2.52988
2.52989
2.5299
2.52991
2.52992
2.52993
2.52994
2.52995
2.52996
2.52996
2.52997
2.52997
2.52997
2.52997
2.52997
2.52997
2.52997
2.54988
2.54988
2.54988
2.54989
2.5499
2.54991
2.54992
2.54993
2.54994
2.54995
2.54995
2.54996
2.54997
2.54997
2.54997
2.54997
2.54997
2.54997
2.54997
2.54997
2.56989
2.56989
2.56989
2.5699
2.5699
2.56991
2.56992
2.56993
2.56994
2.56995
2.56996
2.56996
2.56997
2.56997
2.56997
2.56997
2.56997
2.56997
2.56997
2.56997
2.58989
2.58989
2.5899
2.5899
2.58991
2.58992
2.58993
2.58994
2.58995
2.58996
2.58996
2.58997
2.58997
2.58997
2.58997
2.58997
2.58997
2.58997
2.58997
2.58997
2.6099
2.6099
2.6099
2.60991
2.60992
2.60993
2.60993
2.60994
2.60995
2.60996
2.60997
2.60997
2.60997
2.60998
2.60998
2.60998
2.60998
2.60998
2.60998
2.60998
2.62991
2.62991
2.62991
2.62992
2.62992
2.62993
2.62994
2.62995
2.62996
2.62996
2.62997
2.62997
2.62998
2.62998
2.62998
2.62998
2.62998
2.62998
2.62998
2.62998
2.64992
2.64992
2.64992
2.64993
2.64993
2.64994
2.64995
2.64995
2.64996
2.64997
2.64997
2.64998
2.64998
2.64998
2.64998
2.64998
2.64998
2.64998
2.64998
2.64998
2.66992
2.66993
2.66993
2.66993
2.66994
2.66995
2.66995
2.66996
2.66997
2.66997
2.66998
2.66998
2.66998
2.66998
2.66998
2.66998
2.66998
2.66998
2.66998
2.66998
2.68993
2.68993
2.68994
2.68994
2.68995
2.68995
2.68996
2.68997
2.68997
2.68998
2.68998
2.68998
2.68998
2.68999
2.68998
2.68998
2.68998
2.68998
2.68998
2.68998
2.70994
2.70994
2.70995
2.70995
2.70995
2.70996
2.70997
2.70997
2.70998
2.70998
2.70998
2.70999
2.70999
2.70999
2.70999
2.70999
2.70998
2.70998
2.70998
2.70998
2.72995
2.72995
2.72995
2.72996
2.72996
2.72997
2.72997
2.72998
2.72998
2.72998
2.72999
2.72999
2.72999
2.72999
2.72999
2.72999
2.72999
2.72998
2.72998
2.72998
2.74996
2.74996
2.74996
2.74997
2.74997
2.74997
2.74998
2.74998
2.74999
2.74999
2.74999
2.74999
2.74999
2.74999
2.74999
2.74999
2.74999
2.74999
2.74998
2.74998
2.76997
2.76997
2.76997
2.76997
2.76998
2.76998
2.76998
2.76999
2.76999
2.76999
2.76999
2.76999
2.76999
2.76999
2.76999
2.76999
2.76999
2.76999
2.76999
2.76999
2.78998
2.78998
2.78998
2.78998
2.78998
2.78999
2.78999
2.78999
2.78999
2.79
2.79
2.79
2.79
2.78999
2.78999
2.78999
2.78999
2.78999
2.78999
2.78999
2.80999
2.80999
2.80999
2.80999
2.80999
2.80999
2.81
2.81
2.81
2.81
2.81
2.81
2.81
2.81
2.81
2.80999
2.80999
2.80999
2.80999
2.80999
2.82999
2.83
2.83
2.83
2.83
2.83
2.83
2.83
2.83
2.83
2.83
2.83
2.83
2.83
2.83
2.82999
2.82999
2.82999
2.82999
2.82999
2.85
2.85
2.85
2.85001
2.85001
2.85001
2.85001
2.85001
2.85001
2.85001
2.85001
2.85001
2.85
2.85
2.85
2.85
2.84999
2.84999
2.84999
2.84999
2.87001
2.87001
2.87001
2.87001
2.87001
2.87001
2.87001
2.87001
2.87001
2.87001
2.87001
2.87001
2.87001
2.87
2.87
2.87
2.87
2.86999
2.86999
2.86999
2.89002
2.89002
2.89002
2.89002
2.89002
2.89002
2.89002
2.89002
2.89002
2.89002
2.89001
2.89001
2.89001
2.89
2.89
2.89
2.89
2.89
2.88999
2.88999
2.91003
2.91003
2.91003
2.91003
2.91003
2.91003
2.91003
2.91002
2.91002
2.91002
2.91002
2.91001
2.91001
2.91001
2.91
2.91
2.91
2.91
2.91
2.91
2.93004
2.93004
2.93004
2.93004
2.93003
2.93003
2.93003
2.93003
2.93003
2.93002
2.93002
2.93002
2.93001
2.93001
2.93001
2.93
2.93
2.93
2.93
2.93
2.95005
2.95005
2.95004
2.95004
2.95004
2.95004
2.95004
2.95003
2.95003
2.95003
2.95002
2.95002
2.95001
2.95001
2.95001
2.95
2.95
2.95
2.95
2.95
2.97005
2.97005
2.97005
2.97005
2.97005
2.97005
2.97004
2.97004
2.97004
2.97003
2.97003
2.97002
2.97002
2.97001
2.97001
2.97001
2.97
2.97
2.97
2.97
2.99006
2.99006
2.99006
2.99006
2.99006
2.99005
2.99005
2.99004
2.99004
2.99003
2.99003
2.99002
2.99002
2.99002
2.99001
2.99001
2.99001
2.99
2.99
2.99
3.01007
3.01007
3.01007
3.01007
3.01006
3.01006
3.01005
3.01005
3.01004
3.01004
3.01003
3.01003
3.01002
3.01002
3.01001
3.01001
3.01001
3.01001
3.01
3.01
3.03008
3.03008
3.03008
3.03007
3.03007
3.03007
3.03006
3.03005
3.03005
3.03004
3.03004
3.03003
3.03002
3.03002
3.03002
3.03001
3.03001
3.03001
3.03001
3.03
3.05009
3.05009
3.05008
3.05008
3.05008
3.05007
3.05007
3.05006
3.05005
3.05005
3.05004
3.05003
3.05003
3.05002
3.05002
3.05001
3.05001
3.05001
3.05001
3.05001
3.07009
3.0701
3.07009
3.07009
3.07008
3.07008
3.07007
3.07007
3.07006
3.07005
3.07004
3.07004
3.07003
3.07002
3.07002
3.07002
3.07001
3.07001
3.07001
3.07001
3.0901
3.0901
3.0901
3.0901
3.09009
3.09008
3.09008
3.09007
3.09006
3.09005
3.09005
3.09004
3.09003
3.09003
3.09002
3.09002
3.09001
3.09001
3.09001
3.09001
3.11011
3.11011
3.11011
3.1101
3.1101
3.11009
3.11008
3.11008
3.11007
3.11006
3.11005
3.11004
3.11003
3.11003
3.11002
3.11002
3.11002
3.11001
3.11001
3.11001
3.13012
3.13012
3.13011
3.13011
3.1301
3.1301
3.13009
3.13008
3.13007
3.13006
3.13005
3.13004
3.13004
3.13003
3.13003
3.13002
3.13002
3.13002
3.13001
3.13001
3.15012
3.15012
3.15012
3.15012
3.15011
3.1501
3.15009
3.15008
3.15007
3.15007
3.15006
3.15005
3.15004
3.15003
3.15003
3.15002
3.15002
3.15002
3.15002
3.15001
3.17013
3.17013
3.17013
3.17012
3.17012
3.17011
3.1701
3.17009
3.17008
3.17007
3.17006
3.17005
3.17004
3.17004
3.17003
3.17003
3.17002
3.17002
3.17002
3.17001
3.19014
3.19014
3.19013
3.19013
3.19012
3.19011
3.1901
3.19009
3.19008
3.19007
3.19006
3.19005
3.19004
3.19004
3.19003
3.19003
3.19002
3.19002
3.19002
3.19002
3.21014
3.21015
3.21014
3.21014
3.21013
3.21012
3.21011
3.2101
3.21009
3.21008
3.21006
3.21006
3.21005
3.21004
3.21003
3.21003
3.21002
3.21002
3.21002
3.21002
3.23015
3.23015
3.23015
3.23014
3.23013
3.23012
3.23011
3.2301
3.23009
3.23008
3.23007
3.23006
3.23005
3.23004
3.23003
3.23003
3.23002
3.23002
3.23002
3.23002
3.25016
3.25016
3.25015
3.25015
3.25014
3.25013
3.25012
3.25011
3.25009
3.25008
3.25007
3.25006
3.25005
3.25004
3.25004
3.25003
3.25003
3.25002
3.25002
3.25002
3.27016
3.27016
3.27016
3.27015
3.27014
3.27013
3.27012
3.27011
3.2701
3.27008
3.27007
3.27006
3.27005
3.27004
3.27004
3.27003
3.27003
3.27002
3.27002
3.27002
3.29017
3.29017
3.29016
3.29016
3.29015
3.29014
3.29013
3.29011
3.2901
3.29009
3.29007
3.29006
3.29005
3.29005
3.29004
3.29003
3.29003
3.29002
3.29002
3.29002
3.31017
3.31018
3.31017
3.31016
3.31015
3.31014
3.31013
3.31012
3.3101
3.31009
3.31008
3.31007
3.31005
3.31005
3.31004
3.31003
3.31003
3.31002
3.31002
3.31002
3.33018
3.33018
3.33017
3.33017
3.33016
3.33015
3.33013
3.33012
3.3301
3.33009
3.33008
3.33007
3.33006
3.33005
3.33004
3.33003
3.33003
3.33002
3.33002
3.33002
3.35018
3.35019
3.35018
3.35017
3.35016
3.35015
3.35014
3.35012
3.35011
3.35009
3.35008
3.35007
3.35006
3.35005
3.35004
3.35003
3.35003
3.35002
3.35002
3.35002
3.37019
3.37019
3.37018
3.37018
3.37016
3.37015
3.37014
3.37013
3.37011
3.3701
3.37008
3.37007
3.37006
3.37005
3.37004
3.37003
3.37003
3.37002
3.37002
3.37002
3.39019
3.39019
3.39019
3.39018
3.39017
3.39016
3.39014
3.39013
3.39011
3.3901
3.39008
3.39007
3.39006
3.39005
3.39004
3.39003
3.39003
3.39002
3.39002
3.39002
3.41019
3.4102
3.41019
3.41019
3.41017
3.41016
3.41014
3.41013
3.41011
3.4101
3.41008
3.41007
3.41006
3.41005
3.41004
3.41003
3.41003
3.41002
3.41002
3.41002
3.4302
3.4302
3.43019
3.43019
3.43017
3.43016
3.43015
3.43013
3.43012
3.4301
3.43008
3.43007
3.43006
3.43005
3.43004
3.43003
3.43003
3.43002
3.43002
3.43002
3.4502
3.45021
3.4502
3.45019
3.45018
3.45017
3.45015
3.45014
3.45012
3.4501
3.45009
3.45007
3.45006
3.45005
3.45004
3.45003
3.45003
3.45002
3.45002
3.45002
3.4702
3.47021
3.4702
3.47019
3.47018
3.47017
3.47015
3.47014
3.47012
3.4701
3.47009
3.47007
3.47006
3.47005
3.47004
3.47003
3.47003
3.47002
3.47002
3.47002
3.49021
3.49021
3.4902
3.4902
3.49018
3.49017
3.49015
3.49014
3.49012
3.49011
3.49009
3.49007
3.49006
3.49005
3.49004
3.49003
3.49003
3.49002
3.49002
3.49002
3.51021
3.51021
3.5102
3.5102
3.51018
3.51017
3.51016
3.51014
3.51012
3.51011
3.51009
3.51008
3.51006
3.51005
3.51004
3.51003
3.51003
3.51002
3.51002
3.51002
3.53021
3.53022
3.53021
3.5302
3.53019
3.53018
3.53016
3.53014
3.53012
3.53011
3.53009
3.53008
3.53006
3.53005
3.53004
3.53003
3.53003
3.53002
3.53002
3.53002
3.55021
3.55022
3.55021
3.5502
3.55019
3.55018
3.55016
3.55015
3.55013
3.55011
3.55009
3.55008
3.55006
3.55005
3.55004
3.55003
3.55003
3.55002
3.55002
3.55002
3.57021
3.57022
3.57021
3.57021
3.57019
3.57018
3.57016
3.57015
3.57013
3.57011
3.57009
3.57008
3.57006
3.57005
3.57004
3.57003
3.57003
3.57002
3.57002
3.57002
3.59022
3.59022
3.59021
3.59021
3.59019
3.59018
3.59016
3.59015