/*--------------------------------*- C++ -*----------------------------------*\
| =========                 |                                                 |
| \\      /  F ield         | OpenFOAM: The Open Source CFD Toolbox           |
|  \\    /   O peration     | Version:  1.7.0                                 |
|   \\  /    A nd           | Web:      www.OpenFOAM.com                      |
|    \\/     M anipulation  |                                                 |
\*---------------------------------------------------------------------------*/
FoamFile
{
    version     2.0;
    format      ascii;
    class       volScalarField;
    location    "constant";
    object      Vb;
}
// * * * * * * * * * * * * * * * * * * * * * * * * * * * * * * * * * * * * * //

dimensions      [0 3 0 0 0 0 0];

internalField   nonuniform List<scalar> 
41554
(
18276.5
14890.2
2035.36
5658.04
2470.23
3732.84
7352.45
2149.35
3645.81
3090.31
17929.9
992.415
5151.42
4133.22
2852.29
2818.96
3195.78
3453.13
2338.12
4666.6
1847.97
2801.53
2218.89
2290.03
2003.2
3146.21
2318.05
2966.63
7233.21
1955.86
16442.5
3062.15
1358.36
4977.12
11608.2
5107.35
11496
18355.7
1760.96
4313.43
3385.25
12290.3
1052.97
4614.29
2418.56
3271.42
13092
4855.71
1769.57
1054.79
2083.05
13424.7
2420.66
1708.8
2052.33
9155.81
9320.25
5866.87
2060.66
5831.05
580.243
11281.9
1639.71
3453.9
2461.89
1981.28
2831.27
1271.69
9659.1
3379.11
3235.38
13348.9
5737.62
12302.6
2376.89
1964.61
6958
7310.64
2098.76
4823.59
2999.53
1941.75
4686.33
2740.44
1852.07
2236.67
1589.04
2749.88
2320.38
1749.44
15885.1
1956.03
33939
7255.97
1613.24
3752.52
820.489
19029.1
5983.51
5968.25
9535.82
983.933
2526.79
7856.1
6730.74
9145.13
1242.9
3024.61
2104.92
4141.05
11086.8
1906.31
636.155
1405.56
2741.12
9653.73
11931.1
1906.17
15657.8
10891.1
867.111
713.055
2774.25
14000.3
10034.4
11060.6
893.696
1134.03
9373.77
3068.25
7577.35
6243.43
1334.16
17693.7
6986.72
5464.31
1826.77
2108.83
7051.25
2555.59
1673.29
12444
2221.9
2978.68
5662.39
10730.1
11978.3
13214.1
7035.78
3504.73
2896.69
1071.26
1474
13247.2
1266.49
3514.63
4618.66
1839.09
1951.72
2078.11
5107.12
1590.1
1059.53
7470.26
1224.32
13067.3
1417.97
3538.94
1760.68
1547.42
4269.98
2424.59
2423.26
12622.3
13862.7
11476.4
3618.46
2611.13
2591.77
3527.17
1530.06
3517.35
3352.47
8006.59
8241.32
4165.17
5156.83
1518.98
3001.91
1733.69
2228.42
4594.66
3320.23
3148.85
1646.89
4413.6
1413.27
1764.6
987.812
3978.04
1654.25
3670.11
13142.8
8638.12
17240
1758.38
7868.16
3992.56
4104.67
4192.07
2364
2920.39
8702.01
1508.86
14226.6
8573.04
13407.5
1605.67
7857.02
3025.87
1330.14
6512.52
1077.65
2001.75
1906.6
6797.79
3993.03
4447.27
3628.27
644.111
1035.29
2197.52
1530.58
7094.17
2607.63
3653.37
856.851
8113.48
4316.98
2631.06
2841.6
4323.1
2784.55
3600.64
5347.14
3138.37
3233.15
2788.6
6624.75
9995.51
7156.74
2342.11
5315.46
3314.26
1042.4
2592.07
1056.15
2095.61
1983.34
2348.08
3255.66
4097.66
1766.93
2692.35
1739.15
5773.57
2763.76
4433.32
13400.6
13031.8
1007.86
1219.91
2621.17
3143.78
14098.3
1682.07
18866.5
6673.06
2871.26
847.828
2691.03
860.09
3739.79
1699.52
4461.01
16140.8
14635.2
2897.66
11967.9
1770.23
3758.12
1809.11
2707.16
1194.33
998.365
15913.7
4616.81
6207.2
3284.66
1783.26
2155.23
7255.85
4440.03
1132.61
2724.68
2395.65
2088.75
3935.56
2330.5
5843.88
1958.54
3956.48
1231.76
3514.65
4809.41
1853.91
7713.99
8429.58
2613.74
1630.48
2088.52
11885.8
2415.28
1273.47
2216.48
1660.16
1647.43
3820.6
938.196
4300.75
2813.9
916.016
2302.02
7527.09
4546.3
14948.3
2742.82
8342.69
2161.89
10172.4
7300.2
2067.81
2301.47
6681.11
3473.61
11411.9
5661.46
2886.54
5791.82
16846.6
1564.55
1408.33
1692.28
4399.16
6657.55
4447.93
8671.46
2511.06
9190.8
1825.74
2132.42
2476.27
1969.53
3504.67
1901.48
3072.13
5444.15
3743.11
17841.4
10825
8049.93
7325.38
2007.52
22280.1
6812.67
3852.23
842.984
737.943
1135.77
5694.63
2490.36
21385.1
751.96
20086.2
20865.4
795.893
1328.64
17907.3
1142.44
2575.26
3943.55
3258.75
1976.98
2185.29
1986.45
18140.7
1845.34
7534.1
1995.5
12232.3
2168.11
1460.31
1864.27
1621.94
1524.88
1823.07
7465.14
3689.78
3409.42
2438.8
5794.65
3247.76
2437.29
7475.92
7250.21
7458.7
2862.42
937.962
1437.27
3899.91
4604.66
1207.13
3474.81
3791.05
2483.49
2143.88
11239
5288.92
12096.6
2020.72
11650.7
3465
2300.58
3515.24
2779.47
1280.51
1389.49
2268.16
4000.32
4017.9
2376.1
2863.56
6424.83
13007.9
3690.33
6713.17
3179.16
1018.4
19766.4
4112.76
1416.12
4948.5
2983.57
3815.97
2536.59
2957.82
5232.21
1660.58
4808.94
20367.1
8570.9
1556.47
13624.7
4332.74
1940.03
2341.06
2058.56
4503.08
7153.48
1620.47
1796.24
4242.99
3669.12
10101.7
10299.2
7326.66
2714.83
3450.96
7499.97
11413.2
3894.37
7241.54
3596.22
1963.4
2687.93
2862.15
4562.93
1256.72
1491.34
4467.4
3849.89
1961.3
7392.43
1231.23
4246.73
19014.9
1972.6
4364.75
5618.39
3462.5
15254.3
2659.27
4809.85
1253.28
6939.64
6885.84
9833.44
3015.3
6797.34
2415.55
5713.22
7167.87
7048.54
1714.34
3226.36
1660.08
8094.83
6094.5
4562.19
1570.24
7927.53
2064.82
4992.15
7504.09
11101.9
9058.86
1876.44
2327.53
18420.3
2444.87
8698.22
7717.9
1185.68
10335.2
17187.9
3246.56
4046.35
9619.29
2189.12
1429.37
2136.14
2281.17
10807
1540.1
959.482
8783.26
20853.9
2566.55
11632.6
4429.36
2201.38
7917.82
4008.68
2349.97
9515.67
2170.9
1110.17
2986.73
13728.5
2724.47
13156.4
8361.68
2725.12
1328.41
1989.46
1594.49
1702.98
1916.74
1764.05
1888.49
15130.3
21314.5
15171.5
3003.59
2333.68
2773.92
1984.69
6769.6
4768.32
7981.01
651.641
13345.8
2900.11
841.986
842.667
8065.68
1676.12
2092.47
12861
2551.48
8297.64
3822.69
2313.37
785.249
2686.51
2415.23
1203.33
9634.56
12328.5
851.216
1681.08
622.483
3982.22
3204.96
18804.4
776.926
6028.6
3734.93
2512.78
3267.25
6563.43
16483.5
21167.1
3674
3193.68
905.48
4811.46
9617.84
8614.18
5158.74
5245.04
5397.83
2415.23
8626.83
12701.2
7622.41
9439.3
1927.47
16284.8
7328.4
770.554
6315.79
2362.78
5422.83
836.753
1465.7
2716.53
12989.1
21940.6
12528.8
7038.51
1555.97
2797.88
6362.25
3468.02
1098.35
1193.37
16083.7
4585.79
8366.42
1517.83
5996.19
9139.86
7040.74
2046.86
3667.04
725.171
1162.29
4913.54
8185.7
1923.71
2345.11
2526.6
810.739
5627.13
4621.29
1550.58
4653.33
6504.37
1932.99
4637.69
2303.42
1851.75
1798.18
23060.5
17160
19941.1
1118.26
2771.65
11380
1733.01
2504.12
4444.89
5990.22
4445.2
9191.5
1598.21
9031.97
4939.94
2100.02
938.707
15363.5
1106.72
1190.13
729.608
1423.4
4669.18
882.86
6926.74
1580.63
1045.87
1521.92
9410.03
2638.16
4374.87
3118.42
1931.04
1913.17
5563.19
10984.1
1391.62
10534.8
6177.43
6771.14
1610.55
5438.04
1226.05
18362.6
17236.7
2978.5
20820.2
5535.98
2134.02
1333.09
1601
2133.61
5983.86
13535.7
1905.4
4782.5
3474.66
6656.57
10602.5
1891.66
1405.44
1723.89
2361.12
1618.64
4613.42
8380.97
8424.34
16075
13400.4
7331.92
15096.9
19573.9
2465.86
20119
2451.5
3807.51
8708.82
1297.21
24007
2111.69
3024.13
2250.85
2740.12
821.26
13095.4
945.886
5192.97
1616.93
1366.4
2777.41
2449.64
11913.6
9481.23
4011.24
13173.3
6093.01
1407.3
1739.19
6493.59
1954.77
663.001
2501.32
2174.89
2889.61
3393.18
8002.61
7735.79
3753.21
9415.68
2094.96
7996.57
3149.04
2639.81
4855.39
3926.9
27536
534.525
2048.37
15306.5
3344.29
2545.35
2348.61
6177.65
2115.25
3279.27
11528.6
656.412
26347.8
2025.42
16094.7
16190.4
1767
11838.7
3857.59
8043.72
3468.43
3175.66
1760.64
3062.09
5886.9
680.869
6289.63
12076.9
2893.29
20820.8
3973.78
1336.61
1874.18
11852.8
574.016
8247.86
16723
11252.6
14402.1
4104.96
11800.2
2710.47
3912.49
14352.4
18778.2
1226.43
5957.76
2019.56
5026.06
8052.62
7354.96
4585.01
16292.1
3747.87
4681.84
2250.79
1456.48
20885.1
11419.8
1063.75
25274.3
1368.79
4617.63
2546.61
9965.48
1984.75
2503.57
1467.68
2130.58
1653.18
10421.7
1586.48
2778.9
2294.4
16128
3108.76
9359.57
3945.04
3121.71
1966.64
4686.22
1715.2
2292.44
2172.61
1553.9
2913.79
3922.62
3671.24
4694.24
5569.89
3229.13
6403.23
1900.51
1195.26
13049.8
6205.74
1286.22
4818.87
2927.16
5085.53
8614.16
3211.13
4523.46
8440.12
1107.84
20080.8
4780.92
3519.68
1814.69
4999.87
3477.24
4270.28
2514.75
2678.5
7511.75
10128.4
21874.5
10137.7
1373.6
1900.67
1543.68
1530.69
1990.67
8667
8171.1
9771.27
2588.77
2035.18
5937.12
10173.4
13307.4
5440.7
14608.9
14616.5
1853.97
3127.91
6122.11
3173.94
11773.7
9407.98
2394.03
7102.21
8728.03
8049.08
6545.3
2515.27
743.407
1570.22
4642.42
2693.38
3812.93
2746.47
12895.9
2684.78
1397.89
8772.88
15132.4
5215.67
695.6
1562.25
1073.06
1137.99
1799.44
2336.74
1806.83
5672.25
1867.64
4664.44
2236.56
2804.55
1667.12
1331.19
1528.67
9587.43
1503.32
1993.7
11839.8
8244.91
3736.36
19895.2
3087.28
10948
7387.92
2153.4
13802.3
1661.76
5389.39
1056.67
1364.67
2114.01
1821.54
1742.56
1727.67
1658.91
7038.86
7268.5
3786.87
3427.41
8678.34
1397.84
4863.39
3059.4
10411
5177.86
6118.03
1814.57
5307.6
4281.91
8430.81
2695.24
2489.94
9141.59
5355.78
13870
2088
4565.56
2791.4
1975.38
4125.02
2313.05
16278.6
11229.2
7027.51
1891.47
8513.93
5825.65
4295.24
12397.7
1825.27
2246.74
2230.39
2902.69
2452.68
7374.69
10435.7
3293.85
18227.3
2729.23
1663.5
3763.65
5164.12
1427.48
2181.39
3004.25
1237.79
15315.2
6267.71
3449.98
17371.1
11605.2
3305.07
2065.45
2644.71
2744.29
6882.67
2028.82
10081.3
3686.48
975.541
1688.19
2447.57
1235.91
1951.33
4107.42
1587.61
24599.1
10054.4
8459.88
18296
10017.5
1233.91
3591.69
1938.5
4717.42
7714.96
5502.22
3865.19
1738.3
4742.96
2685.48
2738.74
1625.26
2035.68
3912.22
1940.87
1385.25
2702.03
1666.69
13927.8
1406.61
2938.5
19299.6
1008.78
2826.14
888.823
13725
2671.76
8575.61
4134.02
11413.6
2987.27
10670
5455.32
14037.5
6738.52
1360.44
17036.8
2042.85
9264.33
13287.4
1171.81
2538.19
3392.28
3484.27
4337.17
1509.97
3889.88
4127.8
20490.8
2283.58
11664.3
4916.88
7017.85
10569
17881.4
1322.42
1706.4
7052.1
13213.8
3584.23
1380.76
1160.57
6048.79
3972.73
1388.4
1864.31
2351.91
4489.21
1548.02
27350.5
2232.77
8590.99
3302.83
6994.29
1943.81
8424.73
1777.56
14908
12320.4
4050.26
4020.65
12219
8053.91
2564.2
900.715
6121.13
3703.06
1773.52
2903.17
8210.96
1628.22
1131.41
14036.5
2143.87
694.784
1019.14
4514.55
10206.2
3519.14
3201.79
737.462
13385
5368.37
13245.5
7526.47
3374.68
1769.38
2384.33
1381.5
16506.7
1323.75
1577.89
3933.67
1241.83
10627.5
1149.69
1476.92
1233.9
2278.34
5904.52
1106.51
2726.23
1646.21
5489.65
19222.7
2227.49
25999.1
2674.55
4383.28
2545.38
2931.04
1974.95
2220.27
3735.42
7211.87
3062.38
2842.07
3480.47
2763.27
11277.2
1197.18
2899.12
2120.64
1648.1
3145.05
4665.67
3757.62
3294.13
22999.6
6184.59
3267.89
6535.77
2848.77
2004.21
16513.4
2938.32
29098.9
4094.75
9504.6
15142.6
3958.86
2458.8
4708.75
1900.87
3078.29
3442.22
11880.6
2306.4
1968.65
1488.89
7668.85
3578.42
2932.48
9633.03
5983.88
5556.06
3316.33
3567.94
2254.55
3129.61
1553.49
11834.9
11987.3
2353.41
1535.19
7822.92
2437.21
17591.5
1766.93
1861.04
1949.69
5094.4
7202.43
3696.46
5020.27
11859.4
1157.98
6428.93
1986.31
6031.62
11611.7
1516.33
2409.55
5039.01
2204.96
16100.8
4709.21
7826.43
987.108
1702.14
3791.79
6921.32
2754.6
977.722
1362.23
3974.06
5698.37
1886.24
2228.36
17369.2
1867.58
2394.24
14019.5
6123.18
985.966
8400.7
9328.44
3180.84
1388.81
1945.34
4186.28
857.479
2270.21
2999.41
2559.22
7293.44
1996.08
21841
21862.9
1891.05
2337.46
2634
2434.03
26970.1
22801
3038.99
5799.92
20778.8
11539.5
3932.47
3815.48
4913.39
16642.4
2386.12
20761
4141.72
4982.08
1796.65
2736.91
6225.32
2236.95
3456.4
1281.58
1027.39
18000.5
2271.05
3294.42
16978.2
5219.31
8044.73
3233.42
1821.82
3227.83
5280.83
1807.95
4816.26
2109.62
1319.02
5036.86
8011.97
16569.5
4024.58
1515.58
1139.46
10037.9
1670.55
1283.11
2398.56
1956.63
1648.13
1524.25
2587.17
10533.6
3875.68
2125.91
1935.23
4566.1
4825.01
5991.04
8319.84
4173.4
3547.68
4470.64
832.486
913.024
3260.65
1043.25
3284.6
13995.5
911.509
2486.41
4363.17
2543.51
1382.13
1692.53
1674.05
2527.4
2131.09
1699.34
706.369
4416.57
1782.74
5681.66
11956
981.516
2109.55
1808.18
2509.29
1545.22
14775.5
1608.38
2066.43
16958.6
1820.57
5297.26
2858.27
16822.4
841.257
16674.6
1759.21
1186.07
3863.53
3805.26
4042.39
1393.51
1290.05
2738.06
1252.81
3043.19
929.873
2185.95
2804.4
3663.21
580.755
1832.84
2920.65
1913.91
8864.07
2593.45
1392.18
5895.59
3523.62
3603.43
2344.9
1929.43
1552.07
10636.9
2027.7
1913.55
1677.01
1612.62
921.31
3488.1
2445.05
1586.19
2085.74
2128.78
2201.19
1973.45
1801.61
3438
1262.44
1059.91
834.93
3255.17
2403.05
6655.22
4226.37
900.755
2670.63
1070.6
2156.89
1046.35
1173.95
2664.19
4608.6
5254.83
2169.21
1393.4
3230.45
6293.17
10073
24268.5
2383.84
4709.48
2143.02
11367.8
6506.28
1444.38
1389.33
3489.53
5095.4
3741.15
2258.64
1056.07
9529.45
1152.6
1159.31
6705.68
15565.7
1408.77
10624
3516.74
2559.1
3002.64
1923.15
15697.5
6612.54
11416.4
1442.54
4744.32
5714.46
2832.95
3286.67
9755.19
1065.43
1522.36
23358.2
3142.45
7688.58
2797.27
1864.58
4234.69
4542.24
4685
8428.67
1603.37
4723.76
2999.61
20529.9
5709.38
2945.72
2437.23
1522.36
10193.7
3156.14
6715.35
5548.87
3917.48
4133.2
3103.31
3591.42
2975.94
2907.22
2330.38
9244.6
6668.64
5458.16
12915.9
2032.78
1904.77
3006.88
6760.1
20398.7
4822.12
3517.32
14976.4
10878.2
2005.43
4505.07
5514.64
4412.51
2183.42
1717.21
4307.12
1550.31
3081.97
7511.64
3525.73
2404.97
1453.69
9258.86
2167.42
2186.9
12579.5
2656.86
10930.9
5031.61
961.626
26189.6
1895.41
7224.85
2725.35
7586.5
4737.02
10597.8
1426.55
6060.88
1804.07
8926.11
13375
2125.13
2129.46
1447.2
1569.77
2399.4
1780.13
4257.09
7048.2
3162.27
1570.69
5258.22
1724.59
1883.18
4411.64
5942.67
2130.96
8402.21
1232.85
5198.07
1659.08
6055.83
1804.8
10055.8
1042.26
2113.92
7688.75
3335.13
6156.89
4463.88
1735.82
4592.46
1328.62
1920.26
6871.61
4607.92
1952.9
2723.06
4125.33
4809.3
2633.74
2480.6
15487.5
2006.33
4671.73
21432.7
1334.68
3216.37
2010.05
23293.1
5314.81
13999.1
15577.5
4090.04
8687.62
1650.71
1692.49
1068.19
6946.45
27808.5
11479.5
1636.84
931.035
827.296
786.186
1150.54
1244.62
9593.52
1364.39
2639.03
5013.66
7276.24
1503.25
845.722
10667.9
3746.54
723.007
11105.8
3665.12
2676.42
2686.43
4872.26
605.178
4054.11
11242.7
17484
2341.91
9128.06
13617.4
997.803
7914.64
881.583
9137.92
2315.89
8608.97
1017.2
2805.65
7477.56
2110.21
2146.51
2569.72
1712.2
4013.62
3546.89
1178.41
1489.01
1635.42
824.754
905.091
9420.71
996.338
4021.7
1690.28
18065.3
718.334
2027.6
707.075
3337
11341
11096.6
5606.79
1445.72
1772.41
15371.3
18654.6
10843.4
8743.66
8936.95
2727.81
1240.62
1812.23
2694.46
3263.74
18509.1
1079.76
5731.4
4209.48
3343.84
2685.6
20295.3
19154.4
2256.78
18018.1
1793.92
1103.6
5919.47
4501.16
1587.67
3595.52
2078.99
12441.5
1784.25
14898.7
5572.85
5728.66
1936.96
5582.94
18925.4
4010.51
7779.28
17061.4
1046.1
1550.71
764.951
2315.68
1058.36
1264.24
3425.02
15633.7
4117.31
5605.94
1736.59
16179.5
2104.72
4521.15
9527.82
27002.1
1687.72
814.958
1657.39
9067.29
1200.28
6213.86
3557.98
4532.49
970.639
3863.32
3217.3
2283.79
2328.79
21878.2
2067.98
3171.37
1166.32
2676.06
1864.95
757.574
1051.46
3680.14
1119.28
1119.09
1881.92
1001.28
9001.85
15444.6
1918.58
1598.43
1240.15
1177.76
2389.7
6032.2
2501.92
1093.75
14270.5
12079.8
1350.67
12296.9
1958.62
2718.15
21404.9
1627.12
1549.59
2529.75
2780.45
15852.5
12738
9871.34
13065.3
2669.6
20912
10804.2
13635.8
3708.37
3198.95
13717.5
14092.6
8988.12
1408.03
3331.31
1727.42
980.768
5124.08
2405.53
2957.32
3366.87
11427.6
4676.59
6506.52
1270.49
6771.79
16342.1
3238.7
11474
3500.78
2547.07
14155.2
3384.05
3460.43
2760.95
21681.5
11029.1
2911.86
2972.97
2804.13
12546.3
5308.62
1603.48
8875.12
6502.18
12023.7
2088.28
1372.57
3395.33
2074.21
3231.91
3287.44
1476.27
1612.96
3564.62
2077.27
4275.07
2370.02
6318.87
6958.68
3058.87
5661.61
7746.35
1321.12
3104.71
3298.05
3380.03
4121.05
12497.4
16417.7
5558.32
12773.2
9584.33
24039.4
28402
11505.9
1793.89
2023.42
994.73
2477.16
1348.44
2226.28
1387.86
1736.54
6860.89
18010.6
3870.77
2162.19
1532.03
16621.2
14649
17198.4
2607.03
2633.78
7796.29
2319.45
1906.96
2758.88
12296.9
7277.06
19694.5
37978
3102.4
13955.7
10658.6
1308.7
15235
2360.73
1755.48
2944.01
2593.69
2780.15
2696.49
1372.77
1522.75
1190.43
3687.43
1389.79
2937.92
1531.49
734.796
1585.6
5812.09
4305.2
1190.17
1515.85
1518.53
6271.18
1245.93
5411.7
12991.5
1487.47
3257.71
1222.7
10886.8
1245.17
1868.36
7779.79
1905.66
683.547
12850.6
9057.38
4642.6
1667.31
807.459
5578.61
2081.26
20509.3
2232.69
10251.6
1838.21
3793.53
16867.3
6978.75
13531.2
3089.91
1679.81
8509.99
1031.34
6200.79
4636.65
2866.78
3774.04
4808.33
1994.29
2410.48
8195.61
2574.06
3814.43
1553.98
8430.78
9603.99
6640.32
14476.6
9686.69
6386.02
3230.98
3811.73
6727.23
3340.08
2554.01
879.513
3174.24
12253.1
1712.93
1759.98
1850.91
13733.1
5602.72
880.396
1678.52
5922.07
12699.6
2965.4
11836.5
14393.9
1384.62
11695.2
1951.21
1213.82
10537.5
9576.78
2887.65
25545.3
6928.81
20213.2
7469.23
1783.05
2225.26
2238.42
865.461
2547.43
2348.42
1255.49
2203.04
3027.81
1567.04
3723.63
11738.4
17578.9
2117.19
10875.1
7856.32
3388.95
1598.43
13606.4
7053.53
12741
920.274
8227.69
3103.95
3565.5
1768.49
3068.82
2260.66
1261.95
8331.36
4217.53
871.586
1040.25
4111.78
7807.48
2054.22
2007.19
10893.3
1925.75
15912.4
11422.8
8775.79
3056.58
1712.45
1582.84
1039.92
2747.75
2697.51
1253.69
4391.25
2143.85
22408
16064
3638.76
7464.51
16259.4
3230.83
3454.6
2962.58
4857.32
1677.36
1361.16
2595.83
11280.7
2974.93
2511.21
16525.3
1549.32
1752.66
2838.51
1892.55
3852.91
2559.19
4331.4
2071.54
3649.16
2242.53
3205.56
13007.5
11934.6
1751.61
3619.18
2050.34
28599.2
2928.87
3666.65
4576.95
2764.57
2549.75
672.174
747.518
3118.19
2300.29
1567.65
3503.23
1704.61
2181.44
1677.94
1223.34
1188.39
5641.24
3008.06
2847.9
16305.7
3556.4
11875.3
846.857
8213.9
2287.87
3184.55
3965.96
2128.85
951.63
3115.62
942.953
1217.4
8942.67
591.166
20643
9923.82
11957.3
3412.02
2185.12
4022.82
691.66
2180.26
19172.8
14983
6566.09
18217
3417.82
613.564
1478.26
5049.72
4150.72
6606.04
2276.2
3382.6
9134.92
6943.38
2452.26
1560.35
13118.7
8019.03
3065.48
4429.86
5112.14
15629.3
13747.5
2785.44
1142.48
8892.35
996.187
19881.2
3121.7
24119
4305.99
3772.64
2054.53
24565.3
720.349
24924.2
939.615
1724.48
12799.2
1596.1
9780.85
4011.84
2766.36
1881.51
3250.77
3794.68
1266.94
5058.2
8958.82
8967.46
1233.27
996.801
5560.1
1617.33
3238.87
2309.17
1898.29
1400.42
5687.22
8238.99
1562.99
1330.21
6613.54
10949.2
1741.07
822.903
2928.45
2764.13
4723.61
7327.29
3241.37
2869.54
1460.08
16815.6
5005.54
1013.06
2657.85
3371.01
3851.53
3389.7
2046.06
1640.6
14615.6
2955.89
2351.33
15295.9
2744.99
3209.68
5502.97
4397.81
1658.7
5001.14
4186.09
7237.74
15189.5
2546.77
6943.27
7948.48
4573.27
2034.9
4944.39
995.298
5999.83
12680.6
1986.84
3263.18
2862.13
1438.34
2552.8
8540.78
1732.35
1430.84
1369.07
3379.57
12638.1
12118.4
1402.25
3252.27
3165.08
1853.03
3312.65
3825.65
8629.75
3031.8
3656.53
1882.66
1424.39
3312.51
3001.75
10262.3
1751.12
6158.31
14850.3
1987.61
743.26
2231.64
1883.06
2502.23
7575.2
1625.81
2133.55
14275.6
2904.04
13259.5
2110.93
3389.84
3168.39
3560.17
2644.93
20773.9
1733.53
1907.43
2668.17
5213.74
3492.62
1523.5
3111.71
2359.7
1303.71
4235.64
1311.02
1568.27
2564.16
2914.47
9104.24
1482.01
3498.59
6390.62
4304.76
16246.7
5109.12
3033.49
4805.05
2860.11
12359.2
1689.05
1454.83
2601.13
1011.01
7557.45
2665.12
12958.5
1388.54
20639.8
1506.13
3373.41
1007.63
1580.68
9847.57
1446.38
1314.47
8429.06
3343.98
10217.3
1839.34
3550.25
4473.66
3939.71
11396.1
9422.3
1104.54
1008.92
3864.91
2380.96
10461.1
13788.4
2333.87
12506.5
10096.6
4979.95
9726.77
1857.8
2133.16
2168.73
2506.04
2416.42
1252.87
1373.28
1309.15
1337.13
1445.31
1762.41
3334.38
1217.77
5229.92
3142.95
12658.8
1876.1
3063.71
1684.63
2461.64
8116.49
9967.82
1603.46
9281.32
3023.39
5453.6
1377.51
2357.52
2659.97
1989.96
27891
1644.32
1764.59
1754.65
4895.08
1803.14
2421.78
1451.18
16266.3
2118.17
10274.5
6850.11
3258.28
1485.84
2134.14
6791.82
1733.48
9494.04
2932.64
11310.4
9528.72
1081.75
2653.4
5076.18
1955.14
3739.35
5929.63
2100.28
5839.47
2208.1
2457.53
2471.74
4795.18
2079.58
9538.71
3905.24
1163.41
2650.87
10410.1
747.277
1808.12
1033.87
5258.78
3778.55
5119.03
1967.1
4050.31
4919.12
1958.55
1079.64
5657.91
2211.95
2491.29
4354.87
1652.8
1629.16
13412.2
1734.54
14466.1
1549.69
3724.99
22764.8
1578.1
992.848
2222.59
5792.48
5941.37
2424.47
15520.2
2321.2
3535.7
1564.8
3332.64
1518.71
1802.55
9481.97
3386.65
2506.26
1181.65
3470.53
2948.95
665.375
1530.11
5375.15
1107.85
3051.14
2182.32
10408.2
3652.75
4387.97
1773.21
6166.54
6710.12
3611.85
2567.85
17591.6
1865.37
2022.41
13842.8
11852.8
8001.04
4596.61
13496.3
13403.2
3177.21
2094.25
4867.22
3365.52
1524.78
1555.28
1546.6
726.907
4830.45
15994.5
9312.43
4797.02
3085.47
2373.41
2033.13
2631.04
11380.2
12031.7
812.864
1088.55
3974.25
3858.82
2892.93
4584.41
1658.53
1369.22
2446.3
13458.9
1271.5
1786.78
11598.3
4040.08
2894.16
13652.6
10037
1684.58
2896.98
1223.03
2514.93
3483.14
3553.05
1229.84
2348.33
15084.2
1166.66
3970.24
5601.61
5600.37
870.257
5495.12
9763.05
1595.82
16052.3
9292.31
9644.24
5742.11
5501.23
890.911
1300.29
12528.2
2370.54
2608.8
10604.2
9506
26054.9
1931.21
21094.3
2391.84
3177.98
4341.54
15733.5
4302.7
2639.13
6255.46
3320.85
1778.46
12159.6
2096.39
17932.7
11709.5
1312.92
7015.23
19643.7
3616.86
12469.4
18687
11575.4
2190.09
2541.65
2493.35
3674.69
6932.78
8765.93
6930.73
1351.94
8130.68
2518.47
2323.26
2136.71
1625.13
2692.78
7105.11
1671.74
15917.7
19649.2
1599.05
10970.4
3165.76
12023.8
916.453
2991.98
11267.9
2182.43
583.743
2874.84
15740.8
10026.5
6964.27
838.516
15093.8
1679.19
852.758
3273.91
5311.71
3113.82
13665.9
2436.45
2607.51
21473.5
775.949
2998.79
6067.5
7579.99
8208.45
11805.4
21820.9
4521.56
3170.22
3738.06
1665.9
5034.47
2812.99
1383.89
13420.5
1873.79
6260.31
10234.8
4671.97
13563.4
20913.5
1525.64
24483
1931.08
2991.53
1611.12
2376.48
8527.2
3954.45
1142.19
1261.56
2433.68
1214.34
2156.49
3076.32
4842.43
3012.75
1278.61
861.07
1072.79
6156.81
3238.67
8692.62
11692.1
1441.8
2351.7
1683.6
1004.71
2009.88
26733.8
1483.09
7829.55
9257.2
1942.18
14728.1
2060.89
4051
2051.56
3459.58
1504.4
16155.7
12092.2
3254.5
4204.69
20709.4
2808.71
2102.31
9808.12
17154.7
4084.57
20316.3
11476.9
8916.84
16133.6
4536.12
2505.83
3526.32
6045.02
2654.99
2866.05
8343.43
4167.39
9550.26
2347.24
6281.06
8621.73
1479.71
6997.96
3966.23
3508.97
1869.35
2730.97
2352.13
3151.14
2228.69
1484.31
4456.39
2181.84
1374.03
3092.04
14393.1
6590.58
4218.08
1600.93
1579.94
1680.2
2964.84
30005.1
3377.95
1027.91
1563.99
1201.93
10548
1364.06
1944.52
1245.96
1867.14
7102.1
9206.78
8009.51
1768.44
3523.78
5972.17
1418.47
15752.9
1909.47
4597.65
2605.36
4431.54
23697.9
2589.19
1084.51
1126.53
2188.14
25501.7
15150.1
2395.36
1520.71
20764.1
1585.77
1487.7
8144.87
1799.96
1793.72
1152.05
12410.2
3351.18
1943.83
1380.94
1291.85
1009.24
3769.29
2726.49
6267.52
4223.76
4503.04
4245.93
2802.02
1944.66
1130.34
1084.02
2516.03
7684.87
3980.25
1630.24
4516.97
1937.71
3974.82
5809.37
1869.35
1765.51
1609.62
1084.36
2105.48
2184.44
1368.6
8328.97
11882.9
3563.66
2511.32
3787.82
1255.13
2062.45
7245.02
3220.35
1017.81
3168.03
6334.65
4357.41
10641.1
16338.4
1938.71
1306.96
4153.77
4647.64
3919.7
929.296
2727.94
11943.2
26002.8
2218.34
1083.82
1665.34
16699.9
2180.46
1682.9
1783.93
4303.77
1664.49
6150.3
3950.5
1634.26
14920.9
15998.2
2303.03
4100.75
2025.97
1568.27
4532.57
23757.9
1016.87
13038.7
1220.3
931.599
1967.42
16239.4
3319.41
2302.74
1091.71
3227.71
11985.5
6772.87
858.108
4221.1
6469.69
5761.36
2025.83
10514.7
3939.02
1934.44
3340.64
14136.6
2260.16
3241.08
1343.63
927.579
3946.06
10892.8
2099.73
3717.74
3190.78
3878.85
7504.99
2879.64
3047.21
7340.39
823.639
1022.03
3031.39
8914.88
3926.13
3736.06
2115.6
4164.23
694.607
2628.51
5606.38
1258.42
3035.12
3272.48
1217.53
723.928
3854.2
6887.76
937.654
1102.99
1937.69
2444.21
4711.79
1919.59
733.862
1546.6
17320.6
3556.68
12483.8
2471.68
6052.26
2894.93
2423.73
15242.2
15472.3
9803.36
6967.53
3495.73
3843.99
1736.53
5244.58
2981.04
3501.41
1721.18
5683.85
1587.67
2925.9
9107.62
5104.95
13474.1
1751.65
1994.11
2256.21
4022.79
2619.92
2473.52
13176.8
1151.03
4308.28
10768.2
15677.6
4999.95
3087.16
1572.45
11486.7
10546.9
2200.12
1036.23
5481.81
5187.71
1438.06
11442
15141.9
4370.56
1756.11
1280.63
9192.78
2552.57
2814.38
2872.35
1552.53
2824.72
10680.7
2560.49
4410.92
15050
3710.59
6560.12
2416.32
2337.4
12892.9
3215.4
17211.8
1238.08
1413.95
7386.03
2571.16
3734.71
2758.78
15220.2
8571.95
759.52
21307
12479.5
2753.76
1815.2
3260.07
2880.14
1794
1713.78
9284.43
608.376
4231.7
1562.33
2165.66
3209.09
1422.58
512.735
5409.91
5223.4
8542.71
1344.59
8090.44
2938.46
3514.34
4528.8
659.219
4271.23
1418.53
9026.9
3042.03
7772.31
1885.31
1125.89
15112.5
6195.35
1001.32
4234.63
2213.5
1163.4
10333.6
873.442
2912.93
3125.86
1328.75
1922.3
1580.56
5425.56
9308.02
3789.32
1661.44
5766.2
7046.25
1221.69
13565.3
3377.2
2616.88
4225.16
1239.65
1036.59
708.429
2516.33
2083.25
2171.85
1756.42
2244.02
3741.93
3208.26
11460.1
3514.77
2593.7
7228.04
1946.45
3378.71
4132.12
4774.48
5222.33
4119.41
11665.3
1633.7
2402.9
9411.57
2367.45
8824.09
2154.78
1903.9
3243.88
18864.3
7995.84
11502.5
2491.92
7186.23
1580.88
1350.52
1278.9
14471.9
12327
1789.05
3857.84
1651.79
2636.96
3899.56
6721.05
1594.23
9103.84
1312.99
26145.9
1596.67
6622.93
1664.51
9449.21
2257.05
2356.35
4772.62
10320.1
2352.48
5342.96
2938.21
2978.8
3371.56
10036.8
1485.46
18215.5
2659.09
14041.2
3774.51
1471.99
3837.31
2998.65
18220.5
11054.9
2514.17
2921.69
3440.97
19456.8
5918.03
10302.2
4460.73
2032.51
2838.89
21275.4
5594.26
8478.21
3280.06
3491.91
13229.7
7456.49
5714.65
4080.93
1915.35
14206
12147.1
1979.39
3590.5
11714.9
19710.6
8340.1
5301.45
15218.2
5450.77
16312.4
1617.18
2929.56
2988.99
1887.57
2527.66
1300.8
995.933
2643.32
16949.6
1968.94
1840.39
4577.05
3070.69
5524.59
2099.16
2220.6
3581.16
2299.38
3390.98
8150.58
1800.29
4160.6
1620.7
5282.2
6372.92
2447.25
12142.7
5314.83
1835
12821.4
11700.6
6295.88
6990.26
2744.11
1455.57
3748.51
7574.76
4261.85
666.671
1879.56
4214.47
2566.23
3709.23
861.592
4758.93
1749.02
6632.23
4043.98
3008.58
7662.63
15343.1
4003.05
3852.52
4295.63
2116.64
1894.99
13169.7
5247.33
4495.58
677.687
2974.51
1854.4
9038.16
825.745
3157.94
4286.61
3213.3
814.231
919.275
4334.61
1827.63
2147.89
2177.52
2200.89
10834.3
8950.02
4372.54
3086.74
5661.11
2188.78
2750.8
13121.2
8216.93
7624
2872.7
13628.7
4255.75
1767.85
2146.96
1624.1
2139.49
1374.04
2025.65
940.071
1746.4
3256.07
5975.84
8492.58
1770.14
10739.1
4243.34
15591.9
1535.67
2064.18
3222.32
17721.4
4311.22
2553.21
11370.8
1214.54
19411
7110.76
1866.23
1440.81
2765.69
2380.99
2780.56
2171.19
2312.33
3690.96
15831.6
8916
1645.24
9459.3
930.832
4644.74
1374.42
1640.45
2426.03
7173.55
4888.92
14237.9
7544.05
18246.1
11225.9
8138.29
2957.03
5431.7
1705.79
3993.31
2341.93
15055.8
1009.62
3742.19
1852.42
1377.49
1283
2450.56
1270.19
1097.88
625.823
1527.87
1539.11
2661.7
2385.1
21923.5
1539.56
16169.2
4945.1
9783.91
3887.96
2680.95
1261.52
16593.7
2931.12
4134.43
959.347
5395.46
4460.77
3173.43
3884.81
1466.54
10873.7
1156.18
8290.74
15467.1
1259.25
2760.45
15215.4
1350.93
18185.3
2522.13
1791.45
3533.47
4110.58
4991.78
4284.99
2127.79
862.643
2601.37
990.603
12901.4
2439.51
10451.1
2583.98
1506.7
15598.1
2221.01
2151.96
2967.91
18309.8
1662.39
4534.15
2319.38
3382.32
6015.05
2024.54
17429.1
3624.04
1315.16
1729.43
18485.6
1851.56
3894.21
7861.9
1852.38
2926.88
1721.53
4358.09
4924.42
4639.23
3130.1
3255.5
1991.78
1494.71
1047.31
1686.78
2301.43
3329.34
4428.6
1955.31
8675.54
3845.35
4774.42
3077.24
10248.6
5390.26
2304.72
5797.59
4969.83
9631.96
17476.1
1341.09
1433.46
14528.4
1139.09
998.182
997.633
1178.38
739.395
13149.4
17224.8
13485.1
3039.14
1780.16
9354.29
1319.67
1276.39
2429.06
4158.71
17216.2
2016.41
1045.99
2262.93
3726.24
12594.8
8035.68
2817.61
1498.27
986.6
1268
10249.2
3606.86
5721.15
2144.08
5914.68
2061.25
1414.25
12935.3
1362.45
2224.13
2376.92
11646.9
3871.77
1607.9
26312
12565.9
858.169
2664.29
986.934
5098.2
13176.3
16560.1
1225.06
9805.39
22431.3
1593.79
6728.96
1975.63
4388.06
4474.56
9093.24
23713.4
7140.91
2836.76
1448.4
3791.46
12544
1457.47
10176.9
14858.7
3063.97
1812.12
1590.08
2682.16
3126.05
7753.88
4921.13
3586.73
3024.47
2074.21
3054.63
13054.8
5725.81
2749.56
700.14
1142.92
1654.62
1696.98
4361.92
2241.23
3018.11
15007.7
2155.73
4190.49
13083.2
2044.71
3638.1
4381.72
15804.7
1362.51
5346.25
13474.5
1867.05
6427.41
10280.4
1750.86
2295.31
3531.95
2162.03
1967.53
2726.87
17550
2362.59
4658.55
6428.1
8820.58
1252.37
9782.29
3355.67
2167.73
2776.38
4755.11
1681.36
1582.27
5160.35
2106.84
5244.81
2421.72
2792.66
1920.07
15453.4
9033.71
2230.02
2334.17
4529.19
1815.07
10681.3
17224.2
2218.73
2327.44
3098.13
2338.99
3989.14
21063
790.655
2163.25
1673.76
14740.6
2634.28
2198.77
1546.78
2080.18
1705.07
2037.99
2508.06
1028.8
1056.93
4272.69
6981.84
3749.93
27994
2954.27
1388.6
3638.12
7448.51
5659.61
4027.11
3322.06
10373.5
16136
1252.79
2226.3
18239.8
1145.74
3962.24
7019.22
2245.75
2010.5
1093.47
1531.64
5028.85
2818.12
10831.9
4018.34
5510.5
4187.79
1505.08
3981.53
1555.62
2791.6
4456.27
1944.69
7039.41
1911.39
13987.3
2635.34
1426.38
5627.62
1983.91
17047.1
2341.55
2905.81
8582.89
2097
4234.71
4598.74
6517.1
1673.7
1434.63
9156.9
7101.7
2603.55
3652.37
1905.42
1524.21
3711.15
1692.1
1424.15
2103.27
7361.4
2753.76
4887.54
7919.15
3904.59
2555.2
3932.61
743.487
3254.07
5855.89
5018.99
3057.1
9817.07
3703.67
2825.84
2508.06
8468.2
1642.52
4361.47
5742.29
20099.6
4744.68
7474.05
636.466
2515.77
2669.95
12649
11093.9
3672.84
6892.96
6166.55
783.314
679.093
7728.04
3887.77
8863.78
19655.1
2557.79
4561.51
3651.88
2617.13
9069.26
8103.9
2949.16
3071.66
14991.6
1969.88
7911.14
2963.51
2626.74
1449.75
8586.78
2359.25
1812.1
2243.82
10477.7
2948.97
1257.89
4831.74
4025.95
3065.48
8011.44
4391.38
2876.91
10449.7
1606.26
1290.41
20286.4
3254.56
6576.7
3315.62
7834.92
1479.49
1146.65
6309.65
4426.88
5495.32
2368.13
1275.19
1872.53
3217.99
2423.72
2453.24
7445.63
2134.82
3190.23
2441.17
1237.11
2558.39
1353.47
1920.28
1527.53
23040.6
13823.8
4502.08
2510.95
2262.08
1342.43
1286.17
2282.77
1362.81
1532.59
3814.97
13256.5
7359.38
2143.55
11853.9
14880.8
1635.24
9957.42
1795.95
5199.72
1724.21
2365.02
2307.02
2207.58
2344.26
2674.16
3043.7
4056.8
7189.39
1924.31
3262.75
14116
1709.24
13269.9