/*--------------------------------*- C++ -*----------------------------------*\
| =========                 |                                                 |
| \\      /  F ield         | OpenFOAM: The Open Source CFD Toolbox           |
|  \\    /   O peration     | Version:  1.6                                   |
|   \\  /    A nd           | Web:      www.OpenFOAM.org                      |
|    \\/     M anipulation  |                                                 |
\*---------------------------------------------------------------------------*/
FoamFile
{
    version     2.0;
    format      ascii;
    class       volScalarField;
    location    "0";
    object      sw;
}
// * * * * * * * * * * * * * * * * * * * * * * * * * * * * * * * * * * * * * //

dimensions      [0 0 0 0 0 0 0];

internalField   uniform 0.0;

boundaryField
{
    left
    {
        type            fixedValue;
	value           uniform 0.0;
    }
    right
    {
        type            fixedValue;
	value           uniform 0.0;
    }
    up
    {
        type            fixedValue;
	value           uniform 0.0;
    }
    down
    {
        type            fixedValue;
	value           uniform 0.0;
    }
    frontBack
    {
        type            empty;
    }
}


// ************************************************************************* //
