/*--------------------------------*- C++ -*----------------------------------*\
| =========                 |                                                 |
| \\      /  F ield         | OpenFOAM: The Open Source CFD Toolbox           |
|  \\    /   O peration     | Version:  1.6                                   |
|   \\  /    A nd           | Web:      www.OpenFOAM.org                      |
|    \\/     M anipulation  |                                                 |
\*---------------------------------------------------------------------------*/
FoamFile
{
    version     2.0;
    format      ascii;
    class       polyBoundaryMesh;
    location    "constant/polyMesh";
    object      boundary;
}
// * * * * * * * * * * * * * * * * * * * * * * * * * * * * * * * * * * * * * //

4
(
    left
    {
        type            patch;
        nFaces          1;
        startFace       2;
    }
    right
    {
        type            patch;
        nFaces          1;
        startFace       3;
    }
    upAndDown
    {
        type            empty;
        nFaces          6;
        startFace       4;
    }
    frontAndBack
    {
        type            empty;
        nFaces          6;
        startFace       10;
    }
)

// ************************************************************************* //
