/*--------------------------------*- C++ -*----------------------------------*\
| =========                 |                                                 |
| \\      /  F ield         | OpenFOAM: The Open Source CFD Toolbox           |
|  \\    /   O peration     | Version:  2.1.0                                 |
|   \\  /    A nd           | Web:      www.OpenFOAM.org                      |
|    \\/     M anipulation  |                                                 |
\*---------------------------------------------------------------------------*/
FoamFile
{
    version     2.0;
    format      ascii;
    class       polyBoundaryMesh;
    location    "constant/polyMesh";
    object      boundary;
}
// * * * * * * * * * * * * * * * * * * * * * * * * * * * * * * * * * * * * * //

6
(
    left
    {
        type            patch;
        nFaces          200;
        startFace       22000;
    }
    right
    {
        type            patch;
        nFaces          200;
        startFace       22200;
    }
    up
    {
        type            patch;
        nFaces          200;
        startFace       22400;
    }
    down
    {
        type            patch;
        nFaces          200;
        startFace       22600;
    }
    front
    {
        type            patch;
        nFaces          1600;
        startFace       22800;
    }
    back
    {
        type            patch;
        nFaces          1600;
        startFace       24400;
    }
)

// ************************************************************************* //
