/*--------------------------------*- C++ -*----------------------------------*\
| =========                 |                                                 |
| \\      /  F ield         | OpenFOAM: The Open Source CFD Toolbox           |
|  \\    /   O peration     | Version:  1.5                                   |
|   \\  /    A nd           | Web:      http://www.OpenFOAM.org               |
|    \\/     M anipulation  |                                                 |
\*---------------------------------------------------------------------------*/
FoamFile
{
    version     2.0;
    format      ascii;
    class       dictionary;
    object      blockMeshDict;
}
// * * * * * * * * * * * * * * * * * * * * * * * * * * * * * * * * * * * * * //

convertToMeters 1;

vertices
(
	(0    0    0  ) //0
	(1000 0    0  ) //1
	(1000 1000 0  ) //2
	(0    1000 0  ) //3
	(0    0    250) //4
	(1000 0    250) //5
	(1000 1000 250) //6
	(0    1000 250) //7
);

blocks
(
	hex (0 1 2 3 4 5 6 7) (40 40 10) simpleGrading (1 1 1)
);

edges
(
);

patches
(
	patch left
	(
		(0 4 7 3)
	)
	patch right
	(
		(2 6 5 1)
	)
	patch up
	(
		(3 7 6 2)
	)
	patch down
	(
		(1 5 4 0)
	)
	patch front
	(
		(0 3 2 1)
	)
	patch back
	(
		(4 5 6 7)
	)
);

mergePatchPairs 
(
);
// ************************************************************************* //
