/*--------------------------------*- C++ -*----------------------------------*\
| =========                 |                                                 |
| \\      /  F ield         | OpenFOAM: The Open Source CFD Toolbox           |
|  \\    /   O peration     | Version:  1.6                                   |
|   \\  /    A nd           | Web:      www.OpenFOAM.org                      |
|    \\/     M anipulation  |                                                 |
\*---------------------------------------------------------------------------*/
FoamFile
{
    version     2.0;
    format      ascii;
    class       volScalarField;
    location    "constant";
    object      T;
}
// * * * * * * * * * * * * * * * * * * * * * * * * * * * * * * * * * * * * * //

dimensions      [0 0 0 0 0 0 0];

internalField   nonuniform List<scalar> 
200000
(
0.00999608
0.0099961
0.00999602
0.00999587
0.00999566
0.00999542
0.00999515
0.00999488
0.00999462
0.00999441
0.00999424
0.00999413
0.00999409
0.00999413
0.00999424
0.00999442
0.00999467
0.00999496
0.00999529
0.00999563
0.00999596
0.00999626
0.00999652
0.00999672
0.00999685
0.0099969
0.00999686
0.00999676
0.00999659
0.00999636
0.0099961
0.00999583
0.00999557
0.00999533
0.00999514
0.00999502
0.00999497
0.009995
0.00999512
0.00999532
0.0099956
0.00999593
0.0099963
0.00999669
0.00999709
0.00999745
0.00999778
0.00999803
0.00999822
0.00999832
0.00999834
0.00999829
0.00999816
0.00999797
0.00999774
0.00999749
0.00999725
0.00999701
0.00999681
0.00999666
0.00999657
0.00999654
0.00999658
0.00999668
0.00999684
0.00999704
0.00999726
0.00999751
0.00999775
0.00999798
0.00999819
0.00999838
0.00999852
0.00999863
0.0099987
0.00999874
0.00999875
0.00999875
0.00999873
0.00999872
0.00999871
0.00999871
0.00999871
0.00999873
0.00999875
0.00999878
0.00999881
0.00999883
0.00999885
0.00999885
0.00999884
0.00999881
0.00999878
0.00999873
0.0099987
0.00999868
0.00999868
0.00999871
0.00999878
0.0099989
0.00999907
0.00999929
0.00999956
0.00999987
0.0100002
0.0100006
0.0100009
0.0100012
0.0100015
0.0100017
0.0100019
0.0100019
0.0100019
0.0100018
0.0100017
0.0100014
0.0100011
0.0100008
0.0100005
0.0100001
0.0099998
0.00999952
0.00999929
0.00999913
0.00999904
0.00999902
0.00999906
0.00999916
0.00999931
0.0099995
0.00999971
0.00999993
0.0100002
0.0100004
0.0100006
0.0100007
0.0100009
0.010001
0.0100012
0.0100013
0.0100014
0.0100016
0.0100017
0.0100019
0.0100021
0.0100023
0.0100025
0.0100028
0.010003
0.0100031
0.0100033
0.0100034
0.0100034
0.0100034
0.0100033
0.0100031
0.0100028
0.0100025
0.0100021
0.0100017
0.0100013
0.0100008
0.0100004
0.00999997
0.00999955
0.00999917
0.00999883
0.00999851
0.00999823
0.00999798
0.00999775
0.00999752
0.00999729
0.00999705
0.00999681
0.00999654
0.00999624
0.00999593
0.0099956
0.00999525
0.00999491
0.00999457
0.00999425
0.00999396
0.00999371
0.0099935
0.00999334
0.00999324
0.00999317
0.00999316
0.00999318
0.00999323
0.00999329
0.00999336
0.00999343
0.00999348
0.00999351
0.00999351
0.00999348
0.00999342
0.00999334
0.00999324
0.00999313
0.00999301
0.0099929
0.00999282
0.00999276
0.00999274
0.00999276
0.00999283
0.00999295
0.00999311
0.00999331
0.00999355
0.00999381
0.0099941
0.00999441
0.00999471
0.00999502
0.00999532
0.00999562
0.0099959
0.00999618
0.00999645
0.00999672
0.009997
0.00999728
0.00999757
0.00999788
0.0099982
0.00999855
0.00999892
0.0099993
0.00999969
0.0100001
0.0100005
0.0100009
0.0100012
0.0100016
0.0100019
0.0100021
0.0100023
0.0100025
0.0100026
0.0100026
0.0100026
0.0100026
0.0100025
0.0100024
0.0100022
0.010002
0.0100018
0.0100015
0.0100013
0.0100011
0.0100008
0.0100006
0.0100004
0.0100002
0.0100001
0.00999993
0.00999984
0.00999979
0.00999978
0.00999982
0.0099999
0.01
0.0100002
0.0100004
0.0100006
0.0100008
0.0100011
0.0100013
0.0100015
0.0100016
0.0100017
0.0100017
0.0100017
0.0100015
0.0100013
0.0100011
0.0100008
0.0100005
0.0100001
0.00999981
0.00999954
0.00999933
0.00999919
0.00999914
0.00999917
0.00999929
0.00999947
0.0099997
0.00999995
0.0100002
0.0100004
0.0100006
0.0100006
0.0100006
0.0100004
0.0100002
0.0099999
0.00999953
0.00999914
0.00999877
0.00999844
0.0099982
0.00999806
0.00999804
0.00999813
0.00999833
0.00999859
0.00999888
0.00999917
0.00999942
0.00999959
0.00999965
0.00999958
0.0099994
0.00999913
0.0099988
0.00999844
0.0099981
0.00999781
0.00999762
0.00999753
0.00999755
0.00999765
0.0099978
0.00999796
0.00999809
0.00999815
0.0099981
0.00999795
0.0099977
0.00999739
0.00999706
0.00999676
0.00999654
0.00999643
0.00999646
0.00999663
0.00999689
0.00999719
0.00999747
0.00999768
0.00999776
0.00999769
0.00999749
0.00999717
0.00999682
0.00999648
0.00999623
0.00999612
0.00999617
0.00999633
0.00999657
0.00999681
0.00999699
0.00999705
0.00999694
0.0099967
0.00999635
0.00999598
0.00999567
0.00999548
0.00999545
0.00999555
0.00999575
0.00999598
0.00999617
0.00999625
0.00999621
0.00999605
0.00999582
0.00999559
0.0099954
0.0099953
0.00999526
0.00999528
0.00999531
0.00999532
0.00999532
0.00999531
0.00999531
0.00999536
0.00999544
0.00999553
0.00999558
0.00999555
0.00999543
0.00999523
0.00999502
0.00999488
0.00999487
0.00999503
0.0099953
0.00999562
0.00999587
0.00999599
0.0299882
0.0299883
0.029988
0.0299876
0.029987
0.0299862
0.0299854
0.0299846
0.0299839
0.0299833
0.0299828
0.0299825
0.0299824
0.0299825
0.0299828
0.0299834
0.0299841
0.029985
0.029986
0.029987
0.0299879
0.0299888
0.0299896
0.0299902
0.0299905
0.0299907
0.0299906
0.0299902
0.0299897
0.0299891
0.0299883
0.0299875
0.0299867
0.029986
0.0299854
0.0299851
0.0299849
0.029985
0.0299854
0.029986
0.0299868
0.0299878
0.0299889
0.0299901
0.0299912
0.0299923
0.0299932
0.029994
0.0299945
0.0299948
0.0299949
0.0299947
0.0299943
0.0299938
0.0299931
0.0299924
0.0299916
0.029991
0.0299904
0.0299899
0.0299897
0.0299896
0.0299897
0.02999
0.0299905
0.0299911
0.0299917
0.0299925
0.0299932
0.0299939
0.0299945
0.029995
0.0299955
0.0299958
0.029996
0.0299961
0.0299962
0.0299962
0.0299962
0.0299961
0.0299961
0.0299961
0.0299961
0.0299962
0.0299963
0.0299963
0.0299964
0.0299965
0.0299965
0.0299965
0.0299965
0.0299964
0.0299963
0.0299962
0.0299961
0.029996
0.029996
0.0299961
0.0299964
0.0299967
0.0299972
0.0299979
0.0299987
0.0299997
0.0300006
0.0300017
0.0300027
0.0300036
0.0300044
0.0300051
0.0300055
0.0300057
0.0300057
0.0300054
0.0300049
0.0300042
0.0300033
0.0300023
0.0300013
0.0300003
0.0299994
0.0299985
0.0299979
0.0299974
0.0299971
0.029997
0.0299972
0.0299975
0.0299979
0.0299984
0.029999
0.0299997
0.0300003
0.0300009
0.0300015
0.0300021
0.0300025
0.030003
0.0300034
0.0300038
0.0300042
0.0300047
0.0300051
0.0300057
0.0300063
0.0300069
0.0300075
0.0300082
0.0300088
0.0300093
0.0300097
0.03001
0.03001
0.0300099
0.0300096
0.0300091
0.0300083
0.0300074
0.0300063
0.0300051
0.0300038
0.0300025
0.0300012
0.0299999
0.0299987
0.0299976
0.0299966
0.0299956
0.0299948
0.0299941
0.0299933
0.0299927
0.029992
0.0299913
0.0299905
0.0299897
0.0299888
0.0299879
0.0299869
0.0299858
0.0299848
0.0299838
0.0299829
0.029982
0.0299812
0.0299806
0.0299801
0.0299798
0.0299796
0.0299795
0.0299796
0.0299797
0.0299798
0.02998
0.0299802
0.0299803
0.0299804
0.0299804
0.0299803
0.0299801
0.0299798
0.0299796
0.0299792
0.0299789
0.0299786
0.0299784
0.0299783
0.0299783
0.0299784
0.0299786
0.029979
0.0299795
0.0299801
0.0299808
0.0299816
0.0299824
0.0299833
0.0299842
0.0299851
0.029986
0.0299869
0.0299877
0.0299885
0.0299893
0.0299901
0.0299909
0.0299918
0.0299926
0.0299936
0.0299945
0.0299956
0.0299967
0.0299978
0.029999
0.0300002
0.0300014
0.0300026
0.0300037
0.0300047
0.0300056
0.0300064
0.030007
0.0300075
0.0300078
0.030008
0.030008
0.0300078
0.0300076
0.0300071
0.0300066
0.030006
0.0300054
0.0300046
0.0300039
0.0300032
0.0300024
0.0300018
0.0300011
0.0300006
0.0300001
0.0299997
0.0299995
0.0299993
0.0299993
0.0299995
0.0299997
0.0300001
0.0300007
0.0300013
0.0300019
0.0300026
0.0300033
0.0300039
0.0300044
0.0300048
0.0300051
0.0300051
0.0300049
0.0300045
0.0300039
0.0300032
0.0300023
0.0300013
0.0300004
0.0299995
0.0299987
0.0299981
0.0299977
0.0299975
0.0299976
0.029998
0.0299985
0.0299991
0.0299998
0.0300005
0.0300011
0.0300015
0.0300017
0.0300016
0.0300012
0.0300005
0.0299996
0.0299986
0.0299975
0.0299964
0.0299955
0.0299948
0.0299944
0.0299943
0.0299946
0.0299951
0.0299958
0.0299967
0.0299975
0.0299981
0.0299986
0.0299987
0.0299986
0.029998
0.0299973
0.0299963
0.0299953
0.0299943
0.0299935
0.029993
0.0299927
0.0299927
0.029993
0.0299934
0.0299938
0.0299942
0.0299943
0.0299942
0.0299938
0.0299931
0.0299922
0.0299912
0.0299904
0.0299898
0.0299895
0.0299896
0.02999
0.0299908
0.0299916
0.0299924
0.0299929
0.0299931
0.0299929
0.0299923
0.0299914
0.0299904
0.0299894
0.0299888
0.0299885
0.0299887
0.0299891
0.0299898
0.0299905
0.0299909
0.029991
0.0299907
0.0299899
0.0299889
0.0299879
0.029987
0.0299866
0.0299865
0.0299869
0.0299875
0.0299881
0.0299886
0.0299887
0.0299885
0.029988
0.0299873
0.0299866
0.0299861
0.0299859
0.0299859
0.029986
0.0299861
0.0299861
0.029986
0.0299859
0.0299859
0.029986
0.0299862
0.0299865
0.0299866
0.0299865
0.0299862
0.0299857
0.0299851
0.0299847
0.0299848
0.0299852
0.029986
0.0299869
0.0299875
0.0299878
0.0499803
0.0499804
0.0499799
0.0499792
0.0499782
0.049977
0.0499757
0.0499745
0.0499733
0.0499723
0.0499715
0.049971
0.0499708
0.0499711
0.0499716
0.0499726
0.0499738
0.0499752
0.0499768
0.0499784
0.04998
0.0499814
0.0499826
0.0499836
0.0499841
0.0499843
0.0499841
0.0499836
0.0499828
0.0499816
0.0499804
0.0499791
0.0499778
0.0499767
0.0499758
0.0499752
0.049975
0.0499751
0.0499757
0.0499767
0.049978
0.0499796
0.0499814
0.0499833
0.0499852
0.0499869
0.0499884
0.0499897
0.0499905
0.049991
0.0499911
0.0499908
0.0499902
0.0499893
0.0499882
0.049987
0.0499858
0.0499848
0.0499838
0.0499831
0.0499827
0.0499826
0.0499828
0.0499833
0.0499841
0.049985
0.0499861
0.0499873
0.0499885
0.0499896
0.0499906
0.0499915
0.0499923
0.0499928
0.0499932
0.0499934
0.0499935
0.0499936
0.0499936
0.0499935
0.0499935
0.0499935
0.0499936
0.0499937
0.0499938
0.0499939
0.049994
0.0499941
0.0499941
0.0499941
0.049994
0.0499939
0.0499937
0.0499935
0.0499934
0.0499933
0.0499933
0.0499935
0.0499939
0.0499946
0.0499955
0.0499966
0.049998
0.0499995
0.0500012
0.0500028
0.0500045
0.050006
0.0500073
0.0500083
0.050009
0.0500093
0.0500092
0.0500087
0.0500078
0.0500067
0.0500053
0.0500037
0.050002
0.0500004
0.0499988
0.0499975
0.0499964
0.0499956
0.0499952
0.0499951
0.0499952
0.0499957
0.0499964
0.0499972
0.0499982
0.0499992
0.0500003
0.0500012
0.0500022
0.0500031
0.0500039
0.0500046
0.0500053
0.050006
0.0500068
0.0500075
0.0500084
0.0500093
0.0500103
0.0500113
0.0500124
0.0500134
0.0500144
0.0500152
0.0500159
0.0500163
0.0500164
0.0500162
0.0500156
0.0500147
0.0500135
0.050012
0.0500103
0.0500083
0.0500063
0.0500042
0.050002
0.05
0.049998
0.0499962
0.0499946
0.049993
0.0499917
0.0499904
0.0499892
0.049988
0.0499869
0.0499856
0.0499843
0.049983
0.0499815
0.0499799
0.0499783
0.0499766
0.0499749
0.0499732
0.0499717
0.0499702
0.049969
0.049968
0.0499671
0.0499665
0.0499662
0.049966
0.049966
0.0499661
0.0499663
0.0499665
0.0499667
0.0499668
0.0499669
0.0499668
0.0499666
0.0499664
0.049966
0.0499656
0.0499651
0.0499647
0.0499643
0.049964
0.0499639
0.0499639
0.0499642
0.0499646
0.0499653
0.0499662
0.0499672
0.0499684
0.0499697
0.0499711
0.0499725
0.0499739
0.0499754
0.0499768
0.0499782
0.0499795
0.0499808
0.0499821
0.0499834
0.0499848
0.0499861
0.0499876
0.0499891
0.0499908
0.0499925
0.0499944
0.0499963
0.0499983
0.0500003
0.0500023
0.0500042
0.0500061
0.0500078
0.0500093
0.0500107
0.0500118
0.0500126
0.0500132
0.0500134
0.0500134
0.0500132
0.0500127
0.050012
0.0500111
0.0500101
0.050009
0.0500077
0.0500064
0.0500052
0.0500039
0.0500028
0.0500017
0.0500007
0.05
0.0499994
0.049999
0.0499988
0.0499989
0.0499991
0.0499997
0.0500004
0.0500012
0.0500023
0.0500034
0.0500045
0.0500056
0.0500066
0.0500074
0.050008
0.0500083
0.0500083
0.0500079
0.0500073
0.0500063
0.0500051
0.0500037
0.0500022
0.0500007
0.0499993
0.049998
0.0499971
0.0499964
0.0499962
0.0499963
0.0499968
0.0499976
0.0499986
0.0499996
0.0500007
0.0500016
0.0500022
0.0500024
0.0500023
0.0500017
0.0500006
0.0499993
0.0499977
0.049996
0.0499944
0.0499929
0.0499919
0.0499912
0.0499911
0.0499914
0.0499921
0.0499932
0.0499944
0.0499956
0.0499966
0.0499972
0.0499974
0.0499971
0.0499963
0.0499952
0.0499937
0.0499922
0.0499906
0.0499894
0.0499885
0.0499881
0.0499881
0.0499885
0.049989
0.0499897
0.0499902
0.0499904
0.0499901
0.0499894
0.0499884
0.049987
0.0499856
0.0499843
0.0499834
0.0499829
0.049983
0.0499837
0.0499847
0.0499859
0.049987
0.0499878
0.049988
0.0499876
0.0499867
0.0499853
0.0499838
0.0499824
0.0499815
0.0499812
0.0499814
0.0499822
0.0499832
0.0499841
0.0499847
0.0499847
0.049984
0.0499828
0.0499812
0.0499797
0.0499786
0.049978
0.0499781
0.0499787
0.0499796
0.0499805
0.0499811
0.0499811
0.0499805
0.0499796
0.0499784
0.0499775
0.0499768
0.0499766
0.0499767
0.0499769
0.0499771
0.049977
0.0499768
0.0499766
0.0499764
0.0499765
0.0499768
0.0499772
0.0499775
0.0499774
0.0499769
0.0499761
0.0499753
0.0499748
0.049975
0.0499758
0.049977
0.0499782
0.049979
0.0499791
0.0699723
0.0699723
0.0699717
0.0699707
0.0699693
0.0699678
0.0699661
0.0699644
0.0699628
0.0699615
0.0699605
0.0699599
0.0699597
0.06996
0.0699608
0.0699621
0.0699638
0.0699657
0.0699678
0.06997
0.0699721
0.069974
0.0699756
0.0699769
0.0699776
0.0699778
0.0699775
0.0699768
0.0699756
0.0699741
0.0699724
0.0699706
0.0699689
0.0699674
0.0699662
0.0699654
0.0699651
0.0699654
0.0699662
0.0699675
0.0699693
0.0699715
0.0699739
0.0699764
0.0699789
0.0699812
0.0699833
0.0699849
0.069986
0.0699867
0.0699868
0.0699864
0.0699856
0.0699844
0.0699829
0.0699814
0.0699798
0.0699784
0.0699772
0.0699763
0.0699757
0.0699756
0.0699759
0.0699766
0.0699776
0.0699789
0.0699804
0.069982
0.0699836
0.0699851
0.0699865
0.0699877
0.0699888
0.0699896
0.0699901
0.0699905
0.0699907
0.0699909
0.0699909
0.0699909
0.0699909
0.069991
0.069991
0.0699912
0.0699913
0.0699914
0.0699915
0.0699916
0.0699916
0.0699915
0.0699914
0.0699912
0.069991
0.0699907
0.0699906
0.0699905
0.0699906
0.069991
0.0699916
0.0699926
0.0699939
0.0699955
0.0699974
0.0699995
0.0700017
0.070004
0.0700062
0.0700082
0.0700099
0.0700113
0.0700121
0.0700125
0.0700123
0.0700116
0.0700104
0.0700088
0.0700069
0.0700048
0.0700026
0.0700004
0.0699983
0.0699965
0.069995
0.0699939
0.0699933
0.0699931
0.0699933
0.0699938
0.0699947
0.0699958
0.0699971
0.0699984
0.0699998
0.0700011
0.0700024
0.0700036
0.0700048
0.0700059
0.0700069
0.070008
0.0700091
0.0700102
0.0700115
0.0700128
0.0700142
0.0700156
0.0700171
0.0700185
0.0700198
0.0700209
0.0700217
0.0700222
0.0700223
0.0700219
0.0700211
0.0700199
0.0700183
0.0700163
0.070014
0.0700114
0.0700087
0.0700059
0.070003
0.0700003
0.0699976
0.0699952
0.0699929
0.0699908
0.0699889
0.0699871
0.0699853
0.0699837
0.0699819
0.0699802
0.0699783
0.0699763
0.0699743
0.0699721
0.0699698
0.0699675
0.0699652
0.0699629
0.0699608
0.0699588
0.0699571
0.0699557
0.0699545
0.0699536
0.069953
0.0699526
0.0699524
0.0699524
0.0699525
0.0699526
0.0699528
0.0699529
0.0699528
0.0699527
0.0699525
0.0699521
0.0699516
0.0699512
0.0699507
0.0699503
0.0699499
0.0699497
0.0699497
0.0699499
0.0699504
0.0699512
0.0699521
0.0699534
0.0699548
0.0699564
0.0699581
0.06996
0.0699619
0.0699637
0.0699657
0.0699675
0.0699694
0.0699712
0.0699729
0.0699747
0.0699765
0.0699784
0.0699804
0.0699824
0.0699846
0.0699869
0.0699893
0.069992
0.0699947
0.0699975
0.0700003
0.0700031
0.0700058
0.0700084
0.0700109
0.0700131
0.070015
0.0700165
0.0700177
0.0700185
0.0700189
0.0700189
0.0700186
0.0700179
0.0700169
0.0700157
0.0700142
0.0700125
0.0700108
0.0700089
0.0700071
0.0700053
0.0700036
0.0700021
0.0700008
0.0699997
0.0699989
0.0699984
0.0699983
0.0699984
0.0699989
0.0699996
0.0700007
0.070002
0.0700034
0.0700049
0.0700064
0.0700079
0.0700092
0.0700102
0.0700109
0.0700113
0.0700112
0.0700107
0.0700098
0.0700085
0.0700069
0.0700051
0.0700031
0.0700011
0.0699993
0.0699977
0.0699964
0.0699955
0.0699952
0.0699952
0.0699958
0.0699967
0.0699978
0.0699991
0.0700004
0.0700015
0.0700023
0.0700027
0.0700025
0.0700018
0.0700006
0.069999
0.069997
0.0699949
0.0699928
0.069991
0.0699896
0.0699887
0.0699883
0.0699886
0.0699894
0.0699905
0.0699919
0.0699933
0.0699945
0.0699953
0.0699956
0.0699952
0.0699943
0.0699928
0.069991
0.0699891
0.0699871
0.0699855
0.0699843
0.0699837
0.0699836
0.0699839
0.0699846
0.0699853
0.0699859
0.0699861
0.0699859
0.0699851
0.0699838
0.0699821
0.0699804
0.0699787
0.0699775
0.0699768
0.0699769
0.0699776
0.0699787
0.0699801
0.0699813
0.0699822
0.0699824
0.0699819
0.0699807
0.069979
0.0699772
0.0699756
0.0699746
0.0699742
0.0699745
0.0699754
0.0699765
0.0699775
0.069978
0.0699779
0.0699769
0.0699754
0.0699735
0.0699717
0.0699705
0.06997
0.0699703
0.0699711
0.0699722
0.0699731
0.0699735
0.0699731
0.0699721
0.0699707
0.0699693
0.0699682
0.0699676
0.0699676
0.0699679
0.0699682
0.0699683
0.0699681
0.0699676
0.0699671
0.0699667
0.0699667
0.0699671
0.0699676
0.069968
0.069968
0.0699675
0.0699666
0.0699658
0.0699654
0.0699656
0.0699666
0.0699679
0.0699692
0.0699699
0.0699698
0.089964
0.0899639
0.0899632
0.089962
0.0899604
0.0899585
0.0899565
0.0899545
0.0899526
0.0899511
0.0899499
0.0899492
0.089949
0.0899495
0.0899505
0.0899521
0.0899542
0.0899565
0.0899591
0.0899617
0.0899643
0.0899665
0.0899685
0.0899699
0.0899708
0.089971
0.0899706
0.0899697
0.0899682
0.0899664
0.0899643
0.0899621
0.08996
0.0899582
0.0899568
0.0899559
0.0899556
0.0899559
0.089957
0.0899586
0.0899608
0.0899634
0.0899662
0.0899693
0.0899723
0.0899751
0.0899776
0.0899796
0.089981
0.0899817
0.0899819
0.0899814
0.0899805
0.089979
0.0899773
0.0899755
0.0899737
0.089972
0.0899706
0.0899695
0.0899689
0.0899687
0.0899691
0.0899699
0.0899712
0.0899728
0.0899746
0.0899765
0.0899785
0.0899803
0.0899821
0.0899836
0.089985
0.089986
0.0899869
0.0899874
0.0899878
0.0899881
0.0899882
0.0899883
0.0899884
0.0899885
0.0899886
0.0899887
0.0899888
0.0899889
0.0899889
0.089989
0.089989
0.0899888
0.0899886
0.0899883
0.0899881
0.0899878
0.0899877
0.0899877
0.089988
0.0899886
0.0899895
0.0899908
0.0899925
0.0899946
0.089997
0.0899996
0.0900024
0.0900052
0.0900079
0.0900102
0.0900123
0.0900139
0.0900149
0.0900152
0.090015
0.0900141
0.0900126
0.0900106
0.0900083
0.0900057
0.090003
0.0900004
0.0899979
0.0899956
0.0899938
0.0899924
0.0899915
0.0899912
0.0899914
0.0899919
0.0899929
0.0899942
0.0899957
0.0899973
0.0899989
0.0900006
0.0900022
0.0900038
0.0900053
0.0900068
0.0900082
0.0900097
0.0900113
0.0900129
0.0900145
0.0900163
0.0900181
0.0900199
0.0900217
0.0900234
0.0900249
0.0900261
0.0900271
0.0900276
0.0900276
0.0900271
0.0900261
0.0900246
0.0900226
0.0900201
0.0900174
0.0900142
0.090011
0.0900076
0.0900041
0.0900008
0.0899976
0.0899945
0.0899917
0.089989
0.0899864
0.089984
0.0899817
0.0899794
0.0899771
0.0899747
0.0899722
0.0899697
0.089967
0.0899643
0.0899614
0.0899585
0.0899556
0.0899528
0.0899502
0.0899478
0.0899456
0.0899437
0.0899422
0.089941
0.08994
0.0899394
0.0899389
0.0899387
0.0899386
0.0899385
0.0899385
0.0899385
0.0899383
0.089938
0.0899378
0.0899374
0.0899369
0.0899365
0.0899361
0.0899358
0.0899357
0.0899357
0.0899359
0.0899364
0.0899371
0.0899382
0.0899395
0.0899411
0.0899429
0.0899448
0.0899468
0.0899491
0.0899513
0.0899535
0.0899558
0.0899582
0.0899604
0.0899626
0.0899649
0.0899672
0.0899695
0.089972
0.0899745
0.0899772
0.0899801
0.089983
0.0899863
0.0899897
0.0899931
0.0899968
0.0900003
0.0900039
0.0900075
0.0900108
0.0900139
0.0900167
0.0900191
0.0900211
0.0900227
0.0900238
0.0900243
0.0900243
0.0900239
0.0900231
0.0900218
0.0900202
0.0900183
0.0900161
0.0900138
0.0900114
0.090009
0.0900066
0.0900045
0.0900025
0.0900008
0.0899995
0.0899985
0.0899979
0.0899978
0.089998
0.0899986
0.0899996
0.090001
0.0900027
0.0900045
0.0900064
0.0900082
0.0900101
0.0900116
0.0900129
0.0900137
0.0900141
0.090014
0.0900134
0.0900122
0.0900107
0.0900088
0.0900065
0.0900041
0.0900018
0.0899995
0.0899976
0.089996
0.0899948
0.0899943
0.0899943
0.0899947
0.0899956
0.0899969
0.0899983
0.0899998
0.0900011
0.0900021
0.0900026
0.0900025
0.0900018
0.0900006
0.0899988
0.0899966
0.0899942
0.0899918
0.0899896
0.0899879
0.0899867
0.089986
0.089986
0.0899867
0.0899878
0.0899892
0.0899907
0.089992
0.0899929
0.0899932
0.0899929
0.0899919
0.0899903
0.0899882
0.089986
0.0899838
0.0899817
0.0899803
0.0899794
0.0899791
0.0899794
0.0899801
0.0899809
0.0899815
0.0899818
0.0899816
0.0899808
0.0899794
0.0899776
0.0899755
0.0899736
0.089972
0.0899712
0.089971
0.0899715
0.0899726
0.0899739
0.0899751
0.089976
0.0899763
0.0899757
0.0899745
0.0899727
0.0899708
0.089969
0.0899679
0.0899674
0.0899678
0.0899686
0.0899696
0.0899706
0.0899709
0.0899706
0.0899695
0.0899678
0.0899658
0.0899642
0.089963
0.0899626
0.0899631
0.089964
0.089965
0.0899657
0.0899657
0.0899648
0.0899633
0.0899615
0.0899599
0.0899589
0.0899586
0.0899589
0.0899594
0.0899598
0.0899598
0.0899592
0.0899583
0.0899574
0.0899567
0.0899567
0.0899571
0.0899578
0.0899584
0.0899586
0.0899583
0.0899574
0.0899567
0.0899563
0.0899566
0.0899576
0.0899588
0.0899598
0.0899602
0.0899599
0.109955
0.109955
0.109954
0.109953
0.109951
0.109949
0.109947
0.109945
0.109943
0.109941
0.10994
0.109939
0.109939
0.109939
0.109941
0.109943
0.109945
0.109948
0.10995
0.109953
0.109956
0.109959
0.109961
0.109963
0.109964
0.109964
0.109963
0.109962
0.109961
0.109958
0.109956
0.109954
0.109951
0.109949
0.109948
0.109947
0.109947
0.109947
0.109948
0.10995
0.109952
0.109955
0.109959
0.109962
0.109966
0.109969
0.109972
0.109974
0.109975
0.109976
0.109976
0.109976
0.109975
0.109973
0.109972
0.10997
0.109968
0.109966
0.109964
0.109963
0.109962
0.109962
0.109963
0.109963
0.109965
0.109967
0.109969
0.109971
0.109973
0.109975
0.109977
0.109979
0.109981
0.109982
0.109983
0.109984
0.109985
0.109985
0.109986
0.109986
0.109986
0.109986
0.109986
0.109986
0.109986
0.109986
0.109986
0.109986
0.109986
0.109986
0.109986
0.109985
0.109985
0.109985
0.109985
0.109985
0.109986
0.109986
0.109988
0.109989
0.109991
0.109994
0.109997
0.11
0.110003
0.110006
0.110009
0.110012
0.110014
0.110016
0.110017
0.110017
0.110017
0.110016
0.110014
0.110012
0.110009
0.110007
0.110003
0.11
0.109998
0.109995
0.109993
0.109991
0.10999
0.10999
0.10999
0.10999
0.109991
0.109992
0.109994
0.109996
0.109998
0.11
0.110002
0.110004
0.110006
0.110008
0.11001
0.110011
0.110013
0.110016
0.110018
0.11002
0.110022
0.110024
0.110026
0.110028
0.11003
0.110031
0.110032
0.110033
0.110032
0.110032
0.110031
0.110029
0.110027
0.110024
0.110021
0.110017
0.110013
0.110009
0.110005
0.110002
0.109998
0.109994
0.109991
0.109987
0.109984
0.109981
0.109978
0.109975
0.109972
0.109969
0.109966
0.109963
0.10996
0.109956
0.109953
0.109949
0.109946
0.109943
0.10994
0.109937
0.109934
0.109932
0.10993
0.109929
0.109927
0.109926
0.109926
0.109925
0.109925
0.109924
0.109924
0.109924
0.109924
0.109923
0.109923
0.109922
0.109922
0.109922
0.109922
0.109922
0.109922
0.109922
0.109923
0.109923
0.109924
0.109926
0.109927
0.109929
0.109931
0.109933
0.109936
0.109938
0.109941
0.109943
0.109946
0.109948
0.109951
0.109954
0.109957
0.109959
0.109962
0.109966
0.109969
0.109972
0.109976
0.10998
0.109984
0.109988
0.109992
0.109996
0.110001
0.110005
0.110009
0.110013
0.110017
0.11002
0.110023
0.110025
0.110027
0.110029
0.110029
0.110029
0.110029
0.110028
0.110026
0.110025
0.110022
0.11002
0.110017
0.110014
0.110011
0.110008
0.110006
0.110003
0.110001
0.109999
0.109998
0.109997
0.109997
0.109998
0.109998
0.11
0.110001
0.110003
0.110005
0.110008
0.11001
0.110012
0.110014
0.110015
0.110016
0.110017
0.110017
0.110016
0.110015
0.110013
0.110011
0.110008
0.110005
0.110003
0.11
0.109998
0.109996
0.109994
0.109993
0.109993
0.109994
0.109994
0.109996
0.109997
0.109999
0.11
0.110002
0.110002
0.110002
0.110002
0.110001
0.109999
0.109996
0.109994
0.109991
0.109989
0.109987
0.109985
0.109984
0.109984
0.109984
0.109985
0.109986
0.109988
0.109989
0.10999
0.109991
0.10999
0.109989
0.109988
0.109985
0.109983
0.10998
0.109978
0.109976
0.109975
0.109975
0.109975
0.109976
0.109976
0.109977
0.109978
0.109977
0.109977
0.109975
0.109973
0.109971
0.109969
0.109967
0.109966
0.109965
0.109965
0.109966
0.109968
0.109969
0.10997
0.10997
0.109969
0.109968
0.109966
0.109964
0.109963
0.109961
0.109961
0.109961
0.109962
0.109963
0.109963
0.109964
0.109963
0.109962
0.10996
0.109958
0.109957
0.109956
0.109956
0.109956
0.109957
0.109958
0.109958
0.109957
0.109956
0.109954
0.109952
0.109951
0.10995
0.10995
0.109951
0.109951
0.109952
0.109951
0.10995
0.109949
0.109948
0.109947
0.109946
0.109947
0.109948
0.109949
0.109949
0.109949
0.109948
0.109948
0.109948
0.109948
0.109949
0.109949
0.10995
0.10995
0.10995
0.129947
0.129946
0.129945
0.129944
0.129942
0.12994
0.129937
0.129935
0.129933
0.129931
0.12993
0.129929
0.129929
0.12993
0.129931
0.129933
0.129936
0.129939
0.129942
0.129945
0.129948
0.129951
0.129953
0.129955
0.129956
0.129956
0.129955
0.129954
0.129953
0.12995
0.129948
0.129945
0.129943
0.129941
0.129939
0.129938
0.129938
0.129938
0.12994
0.129942
0.129944
0.129948
0.129951
0.129955
0.129959
0.129962
0.129965
0.129968
0.129969
0.12997
0.129971
0.12997
0.129969
0.129968
0.129966
0.129964
0.129962
0.12996
0.129958
0.129957
0.129956
0.129956
0.129956
0.129957
0.129959
0.129961
0.129963
0.129965
0.129968
0.12997
0.129973
0.129975
0.129977
0.129978
0.12998
0.129981
0.129982
0.129983
0.129983
0.129983
0.129984
0.129984
0.129984
0.129984
0.129984
0.129984
0.129984
0.129983
0.129983
0.129983
0.129983
0.129982
0.129982
0.129982
0.129982
0.129982
0.129983
0.129984
0.129986
0.129988
0.129991
0.129994
0.129997
0.13
0.130004
0.130007
0.130011
0.130014
0.130016
0.130018
0.130019
0.130019
0.130019
0.130018
0.130016
0.130013
0.13001
0.130007
0.130004
0.130001
0.129998
0.129995
0.129992
0.129991
0.129989
0.129989
0.129988
0.129989
0.12999
0.129991
0.129993
0.129994
0.129997
0.129999
0.130001
0.130004
0.130006
0.130008
0.130011
0.130014
0.130016
0.130019
0.130021
0.130024
0.130027
0.130029
0.130031
0.130033
0.130035
0.130036
0.130037
0.130037
0.130037
0.130036
0.130035
0.130033
0.13003
0.130027
0.130024
0.13002
0.130016
0.130011
0.130007
0.130003
0.129998
0.129994
0.12999
0.129986
0.129982
0.129978
0.129974
0.12997
0.129967
0.129963
0.129959
0.129955
0.129952
0.129948
0.129944
0.12994
0.129936
0.129933
0.12993
0.129926
0.129924
0.129921
0.129919
0.129917
0.129915
0.129914
0.129913
0.129912
0.129911
0.12991
0.12991
0.129909
0.129909
0.129908
0.129908
0.129908
0.129907
0.129907
0.129907
0.129908
0.129908
0.129909
0.129909
0.12991
0.129912
0.129913
0.129915
0.129917
0.129919
0.129922
0.129924
0.129927
0.12993
0.129932
0.129935
0.129938
0.129942
0.129945
0.129948
0.129952
0.129955
0.129959
0.129963
0.129967
0.129972
0.129976
0.129981
0.129986
0.129991
0.129996
0.130001
0.130006
0.130011
0.130015
0.130019
0.130023
0.130026
0.130029
0.130031
0.130033
0.130034
0.130034
0.130034
0.130033
0.130031
0.130029
0.130026
0.130023
0.13002
0.130017
0.130013
0.13001
0.130007
0.130004
0.130001
0.129999
0.129998
0.129997
0.129997
0.129997
0.129998
0.129999
0.130001
0.130003
0.130006
0.130009
0.130011
0.130014
0.130016
0.130018
0.130019
0.13002
0.13002
0.130019
0.130017
0.130015
0.130013
0.13001
0.130007
0.130003
0.13
0.129998
0.129995
0.129994
0.129992
0.129992
0.129992
0.129993
0.129995
0.129996
0.129998
0.13
0.130001
0.130002
0.130002
0.130002
0.130001
0.129999
0.129996
0.129993
0.12999
0.129988
0.129985
0.129983
0.129982
0.129982
0.129982
0.129983
0.129984
0.129985
0.129986
0.129987
0.129988
0.129987
0.129986
0.129984
0.129982
0.129979
0.129977
0.129974
0.129972
0.129971
0.129971
0.129971
0.129971
0.129972
0.129973
0.129973
0.129973
0.129972
0.129971
0.129969
0.129966
0.129964
0.129962
0.12996
0.12996
0.12996
0.12996
0.129961
0.129962
0.129963
0.129963
0.129963
0.129962
0.12996
0.129958
0.129956
0.129955
0.129954
0.129954
0.129955
0.129956
0.129956
0.129956
0.129956
0.129954
0.129953
0.129951
0.12995
0.129949
0.129949
0.129949
0.12995
0.12995
0.12995
0.129949
0.129947
0.129945
0.129943
0.129942
0.129941
0.129942
0.129942
0.129943
0.129943
0.129942
0.129941
0.129939
0.129938
0.129937
0.129937
0.129937
0.129938
0.129939
0.12994
0.12994
0.129939
0.129939
0.129939
0.129939
0.129939
0.12994
0.12994
0.129939
0.129939
0.149937
0.149937
0.149936
0.149935
0.149933
0.14993
0.149928
0.149926
0.149924
0.149922
0.14992
0.14992
0.14992
0.149921
0.149922
0.149924
0.149927
0.14993
0.149933
0.149937
0.14994
0.149942
0.149945
0.149946
0.149947
0.149948
0.149947
0.149946
0.149944
0.149942
0.149939
0.149937
0.149935
0.149933
0.149931
0.14993
0.14993
0.149931
0.149932
0.149934
0.149937
0.14994
0.149944
0.149948
0.149952
0.149955
0.149959
0.149961
0.149963
0.149964
0.149965
0.149964
0.149963
0.149962
0.14996
0.149958
0.149956
0.149954
0.149952
0.149951
0.14995
0.14995
0.149951
0.149952
0.149953
0.149955
0.149957
0.14996
0.149963
0.149965
0.149968
0.14997
0.149973
0.149975
0.149976
0.149978
0.149979
0.14998
0.149981
0.149981
0.149981
0.149982
0.149982
0.149982
0.149982
0.149981
0.149981
0.14998
0.14998
0.14998
0.149979
0.149979
0.149979
0.149979
0.149979
0.14998
0.149981
0.149983
0.149985
0.149987
0.14999
0.149994
0.149997
0.150001
0.150005
0.150008
0.150012
0.150015
0.150017
0.150019
0.15002
0.15002
0.15002
0.150019
0.150017
0.150014
0.150011
0.150008
0.150005
0.150001
0.149998
0.149995
0.149992
0.14999
0.149989
0.149988
0.149988
0.149988
0.149988
0.14999
0.149991
0.149993
0.149995
0.149998
0.150001
0.150004
0.150007
0.15001
0.150013
0.150016
0.150019
0.150022
0.150025
0.150028
0.150031
0.150034
0.150036
0.150038
0.15004
0.150041
0.150042
0.150042
0.150042
0.15004
0.150039
0.150036
0.150034
0.15003
0.150026
0.150022
0.150018
0.150013
0.150008
0.150004
0.149999
0.149994
0.149989
0.149984
0.149979
0.149975
0.14997
0.149965
0.149961
0.149956
0.149952
0.149948
0.149943
0.149939
0.149935
0.149931
0.149927
0.149923
0.149919
0.149916
0.149913
0.14991
0.149908
0.149905
0.149903
0.149901
0.1499
0.149899
0.149897
0.149896
0.149896
0.149895
0.149894
0.149894
0.149893
0.149893
0.149893
0.149893
0.149894
0.149894
0.149895
0.149896
0.149897
0.149898
0.149899
0.149901
0.149903
0.149905
0.149907
0.14991
0.149912
0.149915
0.149918
0.149921
0.149925
0.149928
0.149932
0.149936