/*--------------------------------*- C++ -*----------------------------------*\
| =========                 |                                                 |
| \\      /  F ield         | OpenFOAM: The Open Source CFD Toolbox           |
|  \\    /   O peration     | Version:  1.6                                   |
|   \\  /    A nd           | Web:      www.OpenFOAM.org                      |
|    \\/     M anipulation  |                                                 |
\*---------------------------------------------------------------------------*/
FoamFile
{
    version     2.0;
    format      ascii;
    class       volScalarField;
    location    "constant";
    object      T;
}
// * * * * * * * * * * * * * * * * * * * * * * * * * * * * * * * * * * * * * //

dimensions      [0 0 0 0 0 0 0];

internalField   nonuniform List<scalar> 
400
(
0.2375
0.2375
0.2375
0.2375
0.2375
0.2375
0.237499
0.237499
0.2375
0.2375
0.2375
0.2375
0.2375
0.2375
0.2375
0.2375
0.2375
0.2375
0.237501
0.237501
0.715001
0.715001
0.715001
0.715
0.715
0.714999
0.714999
0.714999
0.714999
0.714999
0.715
0.715
0.715
0.715
0.715
0.715
0.715
0.715001
0.715002
0.715002
1.195
1.195
1.195
1.195
1.195
1.195
1.195
1.195
1.195
1.195
1.195
1.195
1.195
1.195
1.195
1.195
1.195
1.195
1.195
1.195
1.6775
1.6775
1.6775
1.6775
1.6775
1.6775
1.6775
1.6775
1.6775
1.6775
1.6775
1.6775
1.6775
1.6775
1.6775
1.6775
1.6775
1.6775
1.6775
1.6775
2.1625
2.1625
2.1625
2.1625
2.1625
2.1625
2.1625
2.1625
2.1625
2.1625
2.1625
2.1625
2.1625
2.1625
2.1625
2.1625
2.1625
2.1625
2.1625
2.1625
2.65
2.65
2.65
2.65
2.65
2.65
2.65
2.65
2.65
2.65
2.65
2.65
2.65
2.65
2.65
2.65
2.65
2.65
2.65
2.65
3.14
3.14
3.14
3.14
3.14
3.14
3.14
3.14
3.14
3.14
3.14
3.14
3.14
3.14
3.14
3.14
3.14
3.14
3.14
3.14
3.6325
3.6325
3.6325
3.6325
3.6325
3.6325
3.6325
3.6325
3.6325
3.6325
3.6325
3.6325
3.6325
3.6325
3.6325
3.6325
3.6325
3.6325
3.6325
3.6325
4.1275
4.1275
4.1275
4.1275
4.1275
4.1275
4.1275
4.1275
4.1275
4.1275
4.1275
4.1275
4.1275
4.1275
4.1275
4.1275
4.1275
4.1275
4.1275
4.1275
4.625
4.625
4.625
4.625
4.625
4.625
4.625
4.625
4.625
4.625
4.625
4.625
4.625
4.625
4.625
4.625
4.625
4.625
4.625
4.625
5.125
5.125
5.125
5.125
5.125
5.125
5.125
5.125
5.125
5.125
5.125
5.125
5.125
5.125
5.125
5.125
5.125
5.125
5.125
5.125
5.6275
5.6275
5.6275
5.6275
5.6275
5.6275
5.6275
5.6275
5.6275
5.6275
5.6275
5.6275
5.6275
5.6275
5.6275
5.6275
5.6275
5.6275
5.6275
5.6275
6.1325
6.1325
6.1325
6.1325
6.1325
6.1325
6.1325
6.1325
6.1325
6.1325
6.1325
6.1325
6.1325
6.1325
6.1325
6.1325
6.1325
6.1325
6.1325
6.1325
6.64
6.64
6.64
6.64
6.64
6.64
6.64
6.64
6.64
6.64
6.64
6.64
6.64
6.64
6.64
6.64
6.64
6.64
6.64
6.64
7.15
7.15
7.15
7.15
7.15
7.15
7.15
7.15
7.15
7.15
7.15
7.15
7.15
7.15
7.15
7.15
7.15
7.15
7.15
7.15
7.6625
7.6625
7.6625
7.6625
7.6625
7.6625
7.6625
7.6625
7.6625
7.6625
7.6625
7.6625
7.6625
7.6625
7.6625
7.6625
7.6625
7.6625
7.6625
7.6625
8.1775
8.1775
8.1775
8.1775
8.1775
8.1775
8.1775
8.1775
8.1775
8.1775
8.1775
8.1775
8.1775
8.1775
8.1775
8.1775
8.1775
8.1775
8.1775
8.17751
8.695
8.695
8.695
8.695
8.695
8.695
8.695
8.695
8.695
8.695
8.695
8.695
8.695
8.695
8.695
8.695
8.695
8.695
8.695
8.695
9.215
9.215
9.215
9.215
9.215
9.215
9.215
9.215
9.215
9.215
9.215
9.215
9.215
9.215
9.215
9.215
9.215
9.215
9.215
9.215
9.7375
9.7375
9.7375
9.7375
9.7375
9.7375
9.7375
9.7375
9.7375
9.7375
9.7375
9.7375
9.7375
9.7375
9.7375
9.7375
9.7375
9.7375
9.7375
9.7375
)
;

boundaryField
{
    left
    {
        type            zeroGradient;
    }
    down
    {
        type            fixedValue;
        value           uniform 0;
    }
    up
    {
        type            fixedValue;
        value           uniform 10;
    }
    right
    {
        type            zeroGradient;
    }
    frontAndBack
    {
        type            empty;
    }
}


// ************************************************************************* //
