/*--------------------------------*- C++ -*----------------------------------*\
| =========                 |                                                 |
| \\      /  F ield         | OpenFOAM: The Open Source CFD Toolbox           |
|  \\    /   O peration     | Version:  1.6                                   |
|   \\  /    A nd           | Web:      www.OpenFOAM.org                      |
|    \\/     M anipulation  |                                                 |
\*---------------------------------------------------------------------------*/
FoamFile
{
    version     2.0;
    format      ascii;
    class       polyBoundaryMesh;
    location    "constant/polyMesh";
    object      boundary;
}
// * * * * * * * * * * * * * * * * * * * * * * * * * * * * * * * * * * * * * //

6
(
    left
    {
        type            patch;
        nFaces          1200;
        startFace       69200;
    }
    down
    {
        type            patch;
        nFaces          400;
        startFace       70400;
    }
    up
    {
        type            patch;
        nFaces          400;
        startFace       70800;
    }
    right
    {
        type            patch;
        nFaces          1200;
        startFace       71200;
    }
    front
    {
        type            patch;
        nFaces          1200;
        startFace       72400;
    }
    back
    {
        type            patch;
        nFaces          1200;
        startFace       73600;
    }
)

// ************************************************************************* //
