/*--------------------------------*- C++ -*----------------------------------*\
| =========                 |                                                 |
| \\      /  F ield         | OpenFOAM: The Open Source CFD Toolbox           |
|  \\    /   O peration     | Version:  1.5                                   |
|   \\  /    A nd           | Web:      http://www.OpenFOAM.org               |
|    \\/     M anipulation  |                                                 |
\*---------------------------------------------------------------------------*/
FoamFile
{
    version     2.0;
    format      ascii;
    class       dictionary;
    object      transportProperties;
}
// * * * * * * * * * * * * * * * * * * * * * * * * * * * * * * * * * * * * * //

//------------------------- (Using Customary Unit) --------------------------//
// Unit conversion facors:
ALPHA_C         ALPHA_C [0 0 0 0 0 0 0] 5.614583;     // 1;
BETA_C          BETA_C  [0 0 0 0 0 0 0] 1.127;        // 86.4e-6;
GAMA_C          GAMA_C  [0 0 0 0 0 0 0] 0.21584e-3;   // 1e-3;
// Fluid properties:
mu_o            mu_o    [1 -1 -1 0 0 0 0] 3; // 1 cp = 0.001 Pa.s
mu_w            mu_w    [1 -1 -1 0 0 0 0] 0.3;
rho_osc         rho_osc [1 -3 0 0 0 0 0] 56.18;// 900//1000 kg/m3 = 62.428 lbm/ft3
rho_wsc         rho_wsc [1 -3 0 0 0 0 0] 60.24;     // 965
// Reference Pressure at minimum reservoir deep:
PrefW            PrefW          [1 -1 -2 0 0 0 0] 4800;
PrefP            PrefP          [1 -1 -2 0 0 0 0] 3694.6;//3759.5;
PrefI            PrefI          [1 -1 -2 0 0 0 0] 7082.3;//6906.7;
// Local gravity:
G               G       [0 1 -2 0 0 0 0] 0;//32.174;//9.81;
// Maximum saturation gap:
DSmax           DSmax   [0 0 0 0 0 0 0] 0.001;
// Automatic timestep selection option:
DtOpt           DtOpt   [0 0 0 0 0 0 0] 0; // 1 to automatic timestep.
// Oil water contact deep:
OWC             OWC     [0 1 0 0 0 0 0] 0; // 0 to no initial free water
// Well line set step dz (equals to block dz size):
dz              dz      [0 1 0 0 0 0 0] 500; // 0 to 1D and 2D problems.

// ************************************************************************* //
