/*--------------------------------*- C++ -*----------------------------------*\
| =========                 |                                                 |
| \\      /  F ield         | OpenFOAM: The Open Source CFD Toolbox           |
|  \\    /   O peration     | Version:  1.6                                   |
|   \\  /    A nd           | Web:      www.OpenFOAM.org                      |
|    \\/     M anipulation  |                                                 |
\*---------------------------------------------------------------------------*/
FoamFile
{
    version     2.0;
    format      ascii;
    class       volScalarField;
    location    "0";
    object      p;
}
// * * * * * * * * * * * * * * * * * * * * * * * * * * * * * * * * * * * * * //

dimensions      [1 -1 -2 0 0 0 0];

internalField   uniform 4000;

boundaryField
{
    left
    {
        type            fixedValue;
        value           uniform 4000;
    }
    right
    {
        type            fixedValue;
        value           uniform 4000;
    }
    up
    {
        type            fixedValue;
        value           uniform 4000;
    }
    down
    {
        type            fixedValue;
        value           uniform 4000;
    }
    frontAndBack
    {
        type            empty;
    }
}


// ************************************************************************* //
